RUNSPEC
TITLE

VERY SIMPLE MODEL

DIMENS
	20   20    10  /

OIL

WATER

GAS

DISGAS

FIELD

TABDIMS
	1    1   40   40    3   20 /

WELLDIMS
	20    8    3   15 /

START
	1 'JAN' 2007  /

GRID

DXV
	20*200 /

DYV
	20*200 /

DZV
	10*100 /
TOPS
	400*6900 /

PORO
	4000*0.2 /

PERMX
	4000*200 /

PERMY
	4000*200 /

PERMZ
	4000*20 /


PROPS

PVDG
----P_g-----B_g-----V_g
	1214.70 13.9470 0.01240
	1414.70 7.02800 0.01250
	1614.70 4.65700 0.01280
	1814.70 3.45300 0.01300
	2214.70 2.24000 0.01390
	2614.70 1.63800 0.01480
	3014.70 1.28200 0.01610
	3414.70 1.05200 0.01730
	3814.70 0.89000 0.01870
/

PVTO
----PVT for live oil
----RS------P_bub---B_o-----V_o
	0.13700 1214.70 1.17200 1.97000 /
	0.19500 1414.70 1.20000 1.55600 /
	0.24100 1614.70 1.22100 1.39700 /
	0.28800 1814.70 1.24200 1.28000 /
	0.37500 2214.70 1.27800 1.09500 /
	0.46500 2614.70 1.32000 0.96700 /
	0.55800 3014.70 1.36000 0.84800 /
	0.66100 3414.70 1.40200 0.76200 /
	0.77000 3814.70 1.44700 0.69100
		4214.70 1.44050 0.69400
		4614.70 1.43400 0.69700 /
/

PVTW
----P_ref-------B_w(pref)----C_W------V_w------C_v
	3814.7000   1.02310    3.10E-06   0.94000    0.00E+00 /

DENSITY
-- Oil   Water   Gas (get from spe9)
   44.98  63.01  0.0702  /

ROCK
	3214.70       0.40E-05 /


SWOF
--Sw         Krw     Krow    Pcwo
0.151090     0.0     1.0     400.0
0.151230     0.0     0.99997 359.190
0.151740     0.0     0.99993 257.920
0.152460     0.0     0.99991 186.310
0.156470     0.0     0.999510 79.060
0.165850     0.0     0.996290 40.010
0.178350     0.0     0.991590 27.930
0.203350 0.000010    0.978830 20.400
0.253350 0.000030    0.943730 15.550
0.352000 0.002292    0.804277  8.720
0.356000 0.006316    0.752374  3.317
0.360000 0.010340    0.700470  0.463
0.364395 0.015548    0.642258 -0.499
0.370000 0.022190    0.568020 -1.194
0.380000 0.035890    0.434980 -1.547
0.400000 0.069530    0.171430 -1.604
0.433450 0.087900    0.125310 -1.710
0.489320 0.123290    0.070530 -1.860
0.517250 0.143030    0.051130 -1.930
0.573120 0.186590    0.024640 -2.070
0.601060 0.210380    0.016190 -2.130
0.656930 0.261900    0.005940 -2.260
0.712800 0.318650    0.001590 -2.380
0.811110 0.430920    0.000020 -2.600
1.0      0.6836      0.000000 -3.24166 /

SGOF
--Sg     Krg  Krog Pcgo
.00      .0    1.   0
.04      .0   .6   .2
.1      .022  .33  .5
.2       .1   .1    1
.3      .24   .02  1.5
.4      .34    .0   2
.5      .42    .0   2.5
.6      .5     .0   3
.7      .8125  .0   3.5
0.84891  1.    .0   3.9  /



PRESSURE
	4000*3814.70
/
SOIL
	4000*0.6
/
SWAT
	4000*0.3
/
SGAS
	4000*0.1
/
RS
	4000*0.7700

/
--RSVD
----depth----Rs
  --6900.0  0.7700
  -- 	7900.0  0.7700
/



SUMMARY

SCHEDULE

WELSPECS
   	PROD      G1         10  10           6900         OIL /
/

COMPDAT
  	PROD       10  10           1  5             OPEN   2* 3.96 /
/

WCONPROD
   PROD      OPEN    LRAT         3*                                                2000               2* /
/

TSTEP
    10*365
/

END
