RUNSPEC 

TITLE
SPE 9TH COMPARATIVE STUDYV
-- 3D heterogeneous study
-- Phase present

NONNC
OIL
WATER
GAS
DISGAS

FIELD

DIMENS
   24   25   15  /

------------------------------------------------------
GRID
------------------------------------------------------
INCLUDE 
	'SPE9.GRDECL'
/
------------------------------------------------------
PROPS
------------------------------------------------------

INCLUDE
	'spe9_perm.inc'
/
INCLUDE
	'spe9_poro.inc'
/

ROCK
--Ref.Press   Comp
  3600.       1.0E-6 /

SWOF
--Sw         Krw     Krow    Pcwo
0.151090     0.0     1.0     400.0
0.151230     0.0     0.99997 359.190
0.151740     0.0     0.99993 257.920
0.152460     0.0     0.99991 186.310
0.156470     0.0     0.999510 79.060
0.165850     0.0     0.996290 40.010
0.178350     0.0     0.991590 27.930
0.203350 0.000010    0.978830 20.400
0.253350 0.000030    0.943730 15.550
0.352000 0.002292    0.804277  8.720
0.356000 0.006316    0.752374  3.317
0.360000 0.010340    0.700470  0.463
0.364395 0.015548    0.642258 -0.499
0.370000 0.022190    0.568020 -1.194
0.380000 0.035890    0.434980 -1.547
0.400000 0.069530    0.171430 -1.604
0.433450 0.087900    0.125310 -1.710
0.489320 0.123290    0.070530 -1.860
0.517250 0.143030    0.051130 -1.930
0.573120 0.186590    0.024640 -2.070
0.601060 0.210380    0.016190 -2.130
0.656930 0.261900    0.005940 -2.260
0.712800 0.318650    0.001590 -2.380
0.811110 0.430920    0.000020 -2.600
1.0      0.6836      0.000000 -3.24166 /

SGOF
--Sg     Krg  Krog Pcgo
.00      .0    1.   0
.04      .0   .6   .2
.1      .022  .33  .5
.2       .1   .1    1
.3      .24   .02  1.5
.4      .34    .0   2
.5      .42    .0   2.5
.6      .5     .0   3
.7      .8125  .0   3.5
0.84891  1.    .0   3.9  /

DENSITY
-- Oil   Water   Gas
   44.98  63.01  0.0702  /


PVCDO
--     Pbub     Rs      Bo        Vo       Co       Vco
       14.7    .0     1.0000     1.20     1.0E-6     0
        400.   .165   1.0120     1.17     1.0E-6     0
        800.   .335   1.0255     1.14     1.0E-6     0
       1200.   .500   1.0380     1.11     1.0E-6     0
       1600.   .665   1.0510     1.08     1.0E-6     0
       2000.   .828   1.0630     1.06     1.0E-6     0
       2400.   .985   1.0750     1.03     1.0E-6     0
       2800.  1.130   1.0870     1.00     1.0E-6     0
       3200.  1.270   1.0985      .98     1.0E-6     0
       3600.  1.390   1.1100      .95     1.0E-6     0
       4000.  1.500   1.1200      .94     1.0E-6     0 
/

RS   
--   Pbub     Rs   
     14.7    .0  
      400.   .165
      800.   .335
     1200.   .500
     1600.   .665
     2000.   .828
     2400.   .985
     2800.  1.130
     3200.  1.270
     3600.  1.390
     4000.  1.500
/

PVDG
--    Pg        Bg       Vg
      14.7    178.08    .0125
       400.     5.4777  .0130
       800.     2.7392  .0135
      1200.     1.8198  .0140
      1600.     1.3648  .0145
      2000.     1.0957  .0150
      2400.     0.9099  .0155
      2800.     0.7799  .0160
      3200.     0.6871  .0165
      3600.     0.6035  .0170
      4000.     0.5432  .0175  /

PVTW
--Depth  Bw      Comp   Vw    Cv
  3600. 1.0034  1.0E-6  0.96  0.0 /

WELLDIMS
   40   15    2   40 /

START
   1 'JAN' 1990  /

--NSTACK
--   25 /
 
--GRAVITY
--64.6936    1.01032   0.9193   /

REGIONS

SOLUTION 

--EQUIL
--Datum    Press     WOC   Pcwoc  GOC   Pcgoc
--9035.    3600.    9950.  0.0    8800.  0.0   1  /


INCLUDE
	'init.inc'
/
PBVD
--Depth   Pb
  5000.   3600.
  9000.   3600.
  14000.  3600. /

SUMMARY

INCLUDE
	'spe9_well.inc'
/
END
