RUNSPEC 
TITLE
COMPARATIVE STUDY - SPE10 upscale 10 X 20 X 10
--This is in ECL format
--Small problem, modified for Liu Ming

START
    1 'JAN' 1990  /

FIELD

UNIFOUT

OIL
WATER

NSTACK
   25 /
   
DIMENS
   10   20   10  /

TABDIMS
    1    1   40   20    1   20  /
    
EQLDIMS
    1    2*  /

WELLDIMS
--NWMAXZ  NCWMAX  NGMAXZ   NWGMAX
--maxwell maxlyr  maxgrp   maxgwell 
  5       100     5        5 /
    
--MESSAGES
--9* 50000 2* /
NONNC 

GRID
--INIT

--EQUALS
DXV
      10*120    /
DYV
	  20*110    /
DZV   
	 10*17    /
TOPS  
	2000*12000    
/
----4*    1    1    /
--------------------------------
-- PORO, PERMX, PERMY, PERMZ
INCLUDE
'spe10_phiperm_2000.inc' /

--------------------------------

PROPS

INCLUDE
'liuming-pvt.inc' /

INCLUDE
'liuming-scal.inc' /

--------------------------------

SOLUTION 

--EQUIL
--Datum    Press    WOC     Pcwoc  GOC    Pcgoc
--12000    6000     15000   0      2370   0   0   0   0  /
  
PRESSURE
  2000*2900 /
  
SWAT 
  2000*0.4 /
SOIL
  2000*0.6 /
--------------------------------

--------------------------------

SCHEDULE
 
INCLUDE
'liuming_schedule1.inc' -- one producer, fixed oil rate
/

END   
