RUNSPEC  

TITLE
COMPARATIVE STUDY - SPE10 upscale 10 X 20 X 1
--This is in ECL format
--Small problem, modified for Liu Ming

START
    1 'JAN' 1990  /

FIELD

UNIFOUT

OIL
WATER

NSTACK
   25 /
   
DIMENS
   10   20   1  /

TABDIMS
    1    1   40   20    1   20  /
    
EQLDIMS
    1    2*  /

WELLDIMS
--NWMAXZ  NCWMAX  NGMAXZ   NWGMAX
--maxwell maxlyr  maxgrp   maxgwell 
  5       100     5        5 /
    
MESSAGES
9* 50000 2* /
NONNC 

GRID
INIT

EQUALS
DX      120    /
DY      110    /
DZ       17    /
TOPS  12000    4*    1    1    /
/

--------------------------------

-- PORO, PERMX, PERMY, PERMZ
INCLUDE
'spe10_phiperm_200.inc' /

--------------------------------

PROPS

INCLUDE
'liuming-pvt.inc' /

INCLUDE
'liuming-scal.inc' /

--------------------------------

SOLUTION 

--EQUIL
--Datum    Press    WOC     Pcwoc  GOC    Pcgoc
--12000    6000     15000   0      2370   0   0   0   0  /
  
PRESSURE
  200*2900 /
  
SWAT 
  200*0.4 /

--------------------------------

RPTSOL
-- 
-- Initialisation Print Output
-- 
'PRES' 'SOIL' 'SWAT' 'SGAS' 'RS' 'RESTART=2' 'FIP=3' 'EQUIL' 'RSVD' /

SUMMARY
EXCEL
NEWTON
TCPUTS
NLINEARS
FOPR
FWPR
FGPR
FOPT
FWPT
FWCT
FPR
BPR 
5,10,1 /
/
WBHP
/
WPI
/
WOPR
/
WWIR
/
WWCT
/
WWPR
/
WGPR
/
RUNSUM

RPTSMRY
	1 /
	
--------------------------------

SCHEDULE 

INCLUDE
'liuming_schedule2.inc' -- one producer, fixed oil rate
/

END   
