-- GENERAL API TRACKING TEST DATA SET
RUNSPEC
TITLE
API TRACKING TEST

DIMENS
   14    1   10  /

NONNC

OIL

WATER

GAS

DISGAS

API

FIELD

EQLDIMS
    1  100    8    1    1 /

TABDIMS
    1    8   25   35    1   25 /

WELLDIMS
    5   10    1    5 /

NUPCOL
    4 /

START
   1 'AUG' 1985  /

GRID

DX
140*500 /

DY
140*500 /

BOX
 1 14 1 1 1 1 /
TOPS
11990 11990 11620 11300 11200 11000 10900 10800 10900  11000 11200
11400 11600 11800 /
ENDBOX

DZ
140*50 /

PORO
140*0.10 /

PERMX
140*100 /

PERMZ
140*10 /

-- ISOLATE BLOCKS 4-5, 1-1, 1-5
EQUALS                                           FIELD   09:24  2 AUG 85
'MULTX   '  .00000000  ,  3,  3  ,  1,  1  ,  1,  5  /
'MULTX   '  .00000000  ,  5,  5  ,  1,  1  ,  1,  5  /
'MULTZ   '  .00000000  ,  4,  5  ,  1,  1  ,  5,  5  /
/

RPTGRID
24*0 /

PROPS

SGFN

.000  .000 0
.030  .000 0
.035  .001 0
.040  .002 0
.050  .004 0
.060  .007 0
.070  .009 0
.100  .018 0
.120  .025 0
.150  .040 0
.200  .073 0
.250  .110 0
.300  .160 0
.350  .210 0
.400  .270 0
.450  .340 0
.500  .410 0
.600  .565 0
.800 1.000 0
 /

SWFN

 .2  .000  0
 .25 .016  0
 .30 .035  0
 .35 .056  0
 .40 .077  0
 .45 .103  0
 .50 .133  0
 .60 .210  0
 .70 .320  0
 .75 .380  0
 .80 .480  0
 .90 .690  0
1.00 1.00  0
 /

SOF3


 .00  .000  .000
 .10  .000  .000
 .20  .000  .000
 .25  .003   1*
 .30  .008  .004
 .35   1*   .010
 .40  .036  .020
 .45   1*   .037
 .50  .110  .068
 .55  .183  .115
 .60  .290  .190
 .65  .420  .320
 .68   1*   .410
 .70  .590  .480
 .73   1*   .620
 .74   1*   .670
 .75  .780  .720
 .76   1*   .760
 .765  1*   .800
 .77   1*   .830
 .80 1.000 1.000
  /

PVDG
  15  235     .008
 500    6.711 .0109
1000    3.145 .0139
1500    1.987 .0168
2000    1.431 .0197
2500    1.117 .0226
3000     .923 .0256
3500     .798 .0285
4000     .716 .0314
4500     .663 .0344
5000     .630 .0373
5500     .612 .0402
5600     .609 .0408
6000     .599 .0431
6500     .596 .0460
 /
 /
 /
 /
 /
 /
 /
 /
PVTO
 .200   600 1.185  .60   /
 .400  1400 1.285  .60   /
 .622  2200 1.395  .60   /
 .686  2420 1.430  .60   /
 .746  2650 1.460  .60   /
 .804  2830 1.485  .60   /
 .900  3130 1.530  .60   /
1.050  3590 1.600  .60   /
1.358  4430 1.750  .60
       6500 1.738  .60   /
1.882  5600 2.020  .60
       6500 2.000  .60   /
2.285  6500 2.230  .60
       7000 2.218  .60   /
 /
 .200   700 1.190  .60   /
 .400  1500 1.295  .60   /
 .622  2350 1.400  .60   /
 .686  2570 1.430  .60   /
 .746  2800 1.465  .60   /
 .804  2990 1.490  .60   /
 .900  3290 1.535  .60   /
1.050  3750 1.605  .60   /
1.358  4600 1.745  .60
       6500 1.700  .60   /
1.882  5970 1.970  .60   /
2.285  7020 2.140  .60
       7500 2.126  .60   /
 /
 .200   770 1.190  .60   /
 .400  1610 1.300  .60   /
 .622  2460 1.405  .60   /
 .686  2700 1.435  .60   /
 .746  2920 1.470  .60   /
 .804  3110 1.495  .60   /
 .900  3430 1.535  .60   /
1.050  3900 1.595  .60
       6500 1.530  .60   /
1.358  4850 1.720  .60   /
1.882  6470 1.930  .60   /
2.285  7720 2.090  .60
       8000 2.081  .60   /
 /
 .200   830 1.195  .60   /
 .400  1700 1.305  .60   /
 .622  2600 1.410  .60   /
 .686  2840 1.440  .60   /
 .746  3060 1.470  .60   /
 .804  3270 1.495  .60   /
 .900  3600 1.535  .60
       6500 1.470  .60   /
1.050  4120 1.595  .60   /
1.358  5130 1.715  .60   /
1.882  6850 1.920  .60   /
2.285  8170 2.070  .60
       8500 2.060  .60   /
 /
 .200   910 1.200  .60   /
 .400  1800 1.310  .60   /
 .622  2720 1.420  .60   /
 .686  2960 1.445  .60   /
 .746  3200 1.470  .60   /
 .804  3400 1.495  .60
       6500 1.430  .60   /
 .900  3740 1.530  .60   /
1.050  4300 1.590  .60   /
1.358  5410 1.710  .60   /
1.882  7300 1.910  .60   /
2.285  8750 2.060  .60
       9000 2.053  .60   /
 /
 .200   970 1.205  .60   /
 .400  1880 1.305  .60   /
 .622  2810 1.410  .60   /
 .686  3060 1.435  .60   /
 .746  3300 1.460  .60
       6500 1.395  .60   /
 .804  3510 1.485  .60   /
 .900  3880 1.520  .60   /
1.050  4460 1.580  .60   /
1.358  5650 1.700  .60   /
1.882  7680 1.900  .60   /
2.285  9240 2.050  .60
       9500 2.043  .60   /
 /
 .200  1040 1.210  .60   /
 .400  1980 1.305  .60   /
 .622  2930 1.395  .60   /
 .686  3200 1.420  .60
       6500 1.355  .60   /
 .746  3430 1.440  .60   /
 .804  3660 1.465  .60   /
 .900  4050 1.500  .60   /
1.050  4650 1.560  .60   /
1.358  5900 1.680  .60   /
1.882  8030 1.880  .60   /
2.285  9670 2.030  .60
      10000 2.021  .60   /
 /
 .200  1120 1.210  .60   /
 .400  2100 1.300  .60   /
 .622  3100 1.380  .60
       6500 1.315  .60   /
 .686  3370 1.400  .60   /
 .746  3610 1.420  .60   /
 .804  3860 1.445  .60   /
 .900  4260 1.475  .60   /
1.050  4880 1.530  .60   /
1.358  6150 1.640  .60   /
1.882  8310 1.820  .60   /
2.285  9970 1.940  .60
      10500 1.926  .60   /
 /
PVTW
5000  1.0000  3.0E-6  0.3 0 /
/
/
/
/
/
/
/

ROCK
 5000    3.5E-06 /
 /
 /
 /
 /
 /
 /
 /

GRAVITY
40.0  1.16  0.824   /
38.7  1.16  0.824   /
36.4  1.16  0.824   /
34.5  1.16  0.824   /
31.9  1.16  0.824   /
29.7  1.16  0.824   /
26.8  1.16  0.824   /
24.0  1.16  0.824   /

RPTPROPS                                         FIELD   09:27  2 AUG 85
   0   0   0   0   0   0   0   0   0   0   /

SOLUTION

APIVD
10800   40.0
11100   38.7
11350   36.4
11500   34.5
11670   31.9
11740   29.7
11810   26.8
11920   24.0 /

EQUIL
10900 5600 11920 0  10900 0  1  0  -5   /

RSVD
10800   2.1
11100   1.358
11350   1.050
11500   0.900
11670   0.804
11740   0.746
11810   0.686
11920   0.622 /

RPTSOL
-- 
-- Initialisation Print Output
-- 
'PRES' 'SOIL' 'SWAT' 'SGAS' 'RS' 'FIP=2' 'EQUIL' 'OILAPI' /

SUMMARY

FOPR

FGPR

FWPR

WOPR                                             FIELD   09:51  2 AUG 85
'PROD1'  'PROD2'  /

WGPR                                             FIELD   09:51  2 AUG 85
'PROD1'  'PROD2'  /

WWCT                                             FIELD   12:32  2 AUG 85
'PROD1'  'PROD2'  /

WGOR                                             FIELD   12:33  2 AUG 85
'PROD1'  'PROD2'  /

WBHP                                             FIELD   09:52  2 AUG 85
'PROD1'  'PROD2'  /

WAPI                                             FIELD   09:47  2 AUG 85
'PROD1'  'PROD2'   /

CAPI                                             FIELD   09:52  2 AUG 85
'PROD1'  8  1  9  /
'DUMP'   5  1  9  /
'DUMP'   5  1  4  /
 /

BAPI                                             FIELD   09:54  2 AUG 85
8 1 9 /
5 1 9 /
5 1 4 /
4 1 2 /
 /

RUNSUM

RPTSMRY
1 /

PERFORMA

SCHEDULE

RPTSCHED                                         FIELD   12:33  2 AUG 85
'PRES' 'SOIL' 'SWAT' 'SGAS' 'RS' 'FIP=2' 'WELLS=2' 'SUMMARY=2' 'CPU=2' 
'WELSPECS' 'NEWTON=2' 'OILAPI' /

WELSPECS                                         FIELD   09:27  2 AUG 85
'PROD1   ','G1      ',  8,  1,  1*   ,'OIL'
  -1.000,'NO ','SHUT','YES',1* ,'SEG',   /
'PROD2   ','G1      ',  4,  1,  1*   ,'OIL'
  -1.000,'NO ','SHUT','YES',1* ,'SEG',   /
'DUMP    ','G1      ',  5,  1,  1*   ,'OIL'
  -1.000,'NO ','SHUT','YES',1* ,'SEG',   /
'INJ1    ','G1      ', 14,  1,  1*   ,'WAT'
  -1.000,'NO ','SHUT','YES',1* ,'SEG',   /
'INJ2    ','G1      ',  1,  1,  1*   ,'WAT'
  -1.000,'NO ','SHUT','YES',1* ,'SEG',   /
/

COMPDAT                                          FIELD   09:31  2 AUG 85
'PROD1   '  1*  1*   5  10 'OPEN'  1*    1*     .6250
    1*      1*      1*     /
'PROD2   '  1*  1*   1   2 'OPEN'  1*    1*     .6250
    1*      1*      1*     /
'DUMP    '  1*  1*   3   5 'OPEN'  1*    1*     .6250
    1*      1*      1*     /
'DUMP    '  1*  1*   8  10 'OPEN'  1*    1*     .6250
    1*      1*      1*     /
'INJ1    '  1*  1*   7  10 'OPEN'  1*    1*     .6250
    1*      1*      1*     /
'INJ2    '  1*  1*   7  10 'OPEN'  1*    1*     .6250
    1*      1*      1*     /
/

WCONPROD                                         FIELD   12:41  2 AUG 85
'PROD1   ','OPEN','GRUP'     1*          1*          1*
     1*      7000.00000  2500.000    1*       1*     1*    /
'PROD2   ','OPEN','GRUP'     1*          1*          1*
     1*      4000.00000  2500.000    1*       1*     1*    /
'DUMP    ','STOP','    '     1*          1*          1*
     1*          1*         1*       1*       1*     1*    /
/
GCONINJE
'G1      ','WAT','VREP' 3* 0.7 /
/
WGRUPCON 
'INJ1    ' YES 0.714 'WAT' /
'INJ2    ' YES 0.286 'WAT' / 
/
WCONINJE                                          FIELD   09:40  2 AUG 85
'INJ1    ','WAT','OPEN','GRUP'     2*  6500.000  /
'INJ2    ','WAT','OPEN','GRUP'     2*  6500.000  /
/

GCONPROD                                         FIELD   12:38  2 AUG 85
'G1      ','ORAT' 4000.00000      1*      6000.00000
  6000.00000 'RATE'  'YES'      1*      '   ' /
/

WEFAC                                            FIELD   12:40  2 AUG 85
'PROD*   '   .80000  /
/

TSTEP
10*100
/

END
