--Contains Keyword COMPORD to order well connections
RUNSPEC

TITLE                                          METRIC  19:11 22 NOV 84
   TESTS CONNECTION ORDERING AND +CON WORKOVERS

DIMENS
 9 9 2 /

OIL
WATER

METRIC

WELLDIMS
 6  10  1  6  /

START
 1 JAN 2001 /

 
GRID        ================================================
 
NOGGF
 
EQUALS
     'DX'     400     /
     'DY'     300     /
     'DZ'     10      /
     'PERMX'  400     /
     'PERMY'  300     /
     'PERMZ'  30      /
     'PORO'   0.3     /
/
 
BOX
 
 1  9  1  9  1  1/
 
TOPS
 
 2202  2145  2105  2080  2072  2080  2105  2145  2202
 2170  2113  2073  2049  2041  2049  2073  2113  2170
 2147  2090  2050  2026  2018  2026  2050  2090  2147
 2133  2077  2037  2013  2005  2013  2037  2077  2133
 2129  2072  2032  2008  2000  2008  2032  2072  2129
 2133  2077  2037  2013  2005  2013  2037  2077  2133
 2147  2090  2050  2026  2018  2026  2050  2090  2147
 2170  2113  2073  2049  2041  2049  2073  2113  2170
 2202  2145  2105  2080  2072  2080  2105  2145  2202  /
 
ENDBOX
 
RPTGRID
   13*0  1  /
 
PROPS    ===============================================================
 
SWFN
0.22   0.0   0.48
0.3    0.07  0.27
0.4    0.15  0.21
0.5    0.24  0.17
0.6    0.33  0.14
0.8    0.65  0.07
0.9    0.83  0.03
1.0    1.0   0.0   /
 
SOF2
0.04   0.0
0.1    0.022
0.2    0.1
0.3    0.24
0.4    0.34
0.5    0.42
0.6    0.5
0.7    0.8125
0.78   1.0    /
 
PVTW
306.1  1.03 0.000041    0.3  0  / ( BAR RM3/SM3 1/BAR CP )
 
ROCK
306.1     0.000053    /        ( BAR 1/BAR )
 
DENSITY
  800   1022  0.9907    /      ( KG/M3 )
 
PVDO
 100      1.05     1.0
 530      1.01     1.0
   /
 
RSCONST
 100.0    180.0  /
 
 
SOLUTION   =============================================================
 
-- INITIAL CONDITIONS - 400 BARS AT 2070 METERS, OWC AT 2120 METERS
-- TILTED BLOCK EQUILIBRATION
--
EQUIL      1 TABLES    2 NODES IN EACH           METRIC  11:14 21 OCT 83
 2070.00 400.000 2120.00  .00000 1000.00  .00000     0      0      10 /
  
RPTSOL
 PRESSURE  SWAT /
 
SUMMARY   ==========================================================
-- SELECT QUANTITIES FOR SUMMARY FILE

WWCT
 P1  P2  /

CWCT
 P1  /
 P2  /
 /

CTFAC
 P1 /
 P2 /
 /

RUNSUM
 
SCHEDULE  ==========================================================

RPTSCHED
  WELSPECS  WELLS=2  SUMMARY PRESSURE SWAT /

--OPTIONS
-- 52*0  1 /
 
WELSPECS
'P1'     'G1'    4  5   1*  'OIL'   -1   /
'P2'     'G1'    6  5   1*  'OIL'   -1   /
'I11'    'G1'    1  1   1*  'WAT'   -1   /
'I19'    'G1'    1  9   1*  'WAT'   -1   /
'I91'    'G1'    9  1   1*  'WAT'   -1   /
'I99'    'G1'    9  9   1*  'WAT'   -1   /
/

COMPDAT
'I*'   2*  1 2   3*       0.1  /
--
 P1    4 6 1 1  AUTO  2*  0.1  3*  Y  /   
 P1    4 5 1 1  AUTO  2*  0.1  3*  Y  /   
 P1    2 4 1 1  OPEN  2*  0.1  3*  Y  /   
 P1    4 7 1 1  OPEN  2*  0.1  3*  X  /   
 P1    2 7 1 1  OPEN  2*  0.1  3*  Y  /   
 P1    2 6 1 1  OPEN  2*  0.1  3*  Y  /   
 P1    2 5 1 1  OPEN  2*  0.1  3*  Y  /   
 P1    3 7 1 1  OPEN  2*  0.1  3*  X  /   
--
 P2    6 4 1 1  AUTO  2*  0.1  3*  Y  /   
 P2    6 5 1 1  AUTO  2*  0.1  3*  Y  /   
 P2    6 3 1 1  OPEN  2*  0.1  3*  X  /   
 P2    7 3 1 1  OPEN  2*  0.1  3*  X  /   
 P2    8 3 1 1  OPEN  2*  0.1  3*  Y  /   
 P2    8 4 1 1  OPEN  2*  0.1  3*  Y  /   
 P2    8 5 1 1  OPEN  2*  0.1  3*  Y  /   
 P2    8 6 1 1  OPEN  2*  0.1  3*  Y  /   
/

COMPLUMP
 P2  6 4 1 1  1 / 
 P2  6 5 1 1  1 /
 P2  6 3 1 1  2 / 
 P2  7 3 1 1  2 / 
 P2  8 3 1 1  3 / 
 P2  8 4 1 1  3 / 
 P2  8 5 1 1  4 / 
 P2  8 6 1 1  4 / 
 /

COMPORD
-- 'P*'  INPUT /
-- 'P*'  DEPTH /
 'P*'  TRACK /
 /

WCONPROD
 P1  OPEN  LRAT   3*  5000   1*   100  /
 P2  OPEN  LRAT   3*  4000   1*   100  /
/

WCONINJE
'I*'   'WAT'  'OPEN'  'GRUP'  2*   530  /
/

GCONINJE
'FIELD'  'WAT'  'VREP'   3*   0.98  /
/

WGRUPCON
 'I1*'  YES  50  RAT /
 'I9*'  YES  40  RAT /
/

WECON
 P1  2*  0.4  2*  +CON /
 /

CECON
 P2   4*   0.5  2*  +CON /
/

TSTEP
 10*50 4*100
/

END
