RUNSPEC
TITLE
  SMALL DIFFUSION TEST CASE - DUAL POROSITY

DIMENS
    4    4    2  /

DUALPORO

OIL

WATER

GAS

DISGAS

VAPOIL

FIELD

DIFFUSE

EQLDIMS
    1  100    2    1   20 /

TABDIMS
    2    2   13   20    1   20 /

WELLDIMS
    2   13    1    2 /

LGR
       0           0           0    0    0   10  'NOINTERP' /

NUPCOL
    4 /

START
  26 'JAN' 1983  /

NSTACK
    4 /

FMTOUT

FMTIN

UNIFOUT

UNIFIN

GRID      ==============================================================

DPGRID

EQUALS
 'DX'       75    /    PROPERTIES COMMON TO MATRIX AND FRACTURES
 'DY'       75    /
 'DZ'       30    /
 'TOPS'   4000    /
 'PERMZ'     0    /
 'PORO'   0.19      1  4  1  4  1  1  /  MATRIX PROPERTIES
 'PERMX'     1    /
 'PERMY'     1    /
 'PORO'   0.01      1  4  1  4  2  2  /  FRACTURE PROPERTIES
 'PERMX' 50000    /
 'PERMY' 50000    /
/

PSEUDOS


RPTGRID                                          FIELD   15:44 26 FEB 91
   -- Report Levels for Grid Section Data
   -- 
   'DX' 
   'DY' 
   'DZ' 
   'PERMX' 
   'TOPS' 
   'PORV' 
   'DEPTH' 
   'ALLNNC' 
   'SIGMAV' 
   'DZMTRXV' 
   'DIFFMX' 
   'DIFFMY' 
   'DIFFMZ' 
   'DIFFMMF' 
 / 

--SIGMA FOR 10 BY 10 BY 30 FT BLOCKS
SIGMA
 0.08   /

PROPS     ==============================================================

DIFFC
 100.0 1.2178445   0.001 /
 100.0 1.2178445   0.001 /

--TO OBTAIN CASE WITH NO IMBIBITION, SET CAPILLARY PRESSURES TO ZERO
SWFN
    .2500  .0000 4.0000
    .3000  .0200 2.9500
    .4000  .0550 1.6500
    .5000  .1000  .8500
    .6000  .1450  .3000
    .7000  .2000  .0000
/
    .0000  .0000 4.0000
    .1000  .0500 1.8500
    .2000  .1100  .9000
    .2500  .1450  .7250
    .3000  .1800  .5500
    .4000  .2600  .4000
    .5000  .3550  .2900
    .6000  .4750  .2000
    .7000  .5850  .1600
    .8000  .7150  .1100
    .9000  .8500  .0500
   1.0000 1.0000  .0000
/

SOF3
    .3000  .0000 .0000
    .4000  .1100 .1100
    .5000  .2400 .2400
    .6000  .4200 .4200
    .7000  .7050 .7050
    .7500  .9200 .9200
/
    .0000  .0000 .0000
    .1000  .0210 .0210
    .2000  .0570 .0570
    .3000  .1020 .1020
    .4000  .1730 .1730
    .5000  .2400 .2400
    .6000  .3300 .3300
    .7000  .4500 .4500
    .7500  .5190 .5190
    .8000  .5870 .5870
    .9000  .7700 .7700
   1.0000 1.0000 1.0
/
SGFN       1 TABLES   19 NODES IN EACH           FIELD   16:31 18 JAN 85
    .0000  .0000 0.0000
    .0400  .0000 0.0000
    .1000  .0220 0.0000
    .2000  .1000 0.0000
    .3000  .2400 0.0000
    .4000  .3400 0.0000
    .5000  .4200 0.0000
    .6000  .5000 0.0000
    .7000  .8125 0.0000
/
     0.0    0.0   0.0000
     1.0    1.0   0.0000
/

PVTW       1 TABLES   13 P NODES    5 R NODES    FIELD   18:05 29 NOV 83
  .0000000   1.00000    3.03E-06    .50000    0.00E-01 /
  .0000000   1.00000    3.03E-06    .50000    0.00E-01 /


-- Blackoil Tables for sample ZI   at T=   176.00000 Deg F
-- With Peng-Robinson        (3-Parameter) EoS
-- And Lohrenz-Bray-Clark Viscosity Correlation

-- ECLIPSE 100 DENSITY data
-- Surface densities of Oil, Water and Gas:

-- Units of FIELD

DENSITY
     47.83862      62.42797        .05826   /
     47.83862      62.42797        .05826   /

--  2 Stage separator at
-- Pressures       200.00000        .00000
-- Temperatures    100.00010      60.00000
-- Pressures in PSIG     Temperatures in Deg F

--ECLIPSE 100 PVTG data
--(Constant volume depletion)
--Units are FIELD
--Method used : Whitson and Torp

PVTG
--     PSIG       STB/MSCF      RB/MSCF       CPOISE
   1100.00000          .00104       2.44917      .0139417   --Saturated
                       .00000       2.45289      .0139357 / --Dry gas
   1800.00000          .00278       1.44095      .0165503   --Saturated
                       .00104       1.44567      .0164934   --Undersat gas
                       .00000       1.44848      .0164601 / --Dry gas
   2500.00000          .00710       1.03406      .0203634   --Saturated
                       .00278       1.04186      .0200698   --Undersat gas
                       .00104       1.04497      .0199559   --Undersat gas
                       .00000       1.04684      .0198885 / --Dry gas
   3200.00000          .01567        .83350      .0251337   --Saturated
                       .00710        .84250      .0242956   --Undersat gas
                       .00278        .84707      .0238943   --Undersat gas
                       .00104        .84893      .0237358   --Undersat gas
                       .00000        .85004      .0236415 / --Dry gas
   3900.00000          .03036        .72559      .0307170   --Saturated
                       .01567        .73308      .0289584   --Undersat gas
                       .00710        .73771      .0280088   --Undersat gas
                       .00278        .74016      .0275387   --Undersat gas
                       .00104        .74117      .0273518   --Undersat gas
                       .00000        .74177      .0272404 / --Dry gas
   4460.50453          .04912        .67723      .0361387   --Psat
                       .03036        .68076      .0335633   --Undersat gas
                       .01567        .68421      .0317741   --Undersat gas
                       .00710        .68658      .0307555   --Undersat gas
                       .00278        .68788      .0302486   --Undersat gas
                       .00104        .68842      .0300465   --Undersat gas
                       .00000        .68874      .0299259 / --Dry gas
   4600.00000          .05537        .66713      .0368482   --Undersat
                       .04912        .67007      .0366406   --Undersat gas
                       .03036        .67248      .0342597   --Undersat gas
                       .01567        .67518      .0324475   --Undersat gas
                       .00710        .67709      .0314146   --Undersat gas
                       .00278        .67816      .0309001   --Undersat gas
                       .00104        .67860      .0306949   --Undersat gas
                       .00000        .67614      .0305363 / --Dry gas
 /
--     PSIG       STB/MSCF      RB/MSCF       CPOISE
   1100.00000          .00104       2.44917      .0139417   --Saturated
                       .00000       2.45289      .0139357 / --Dry gas
   1800.00000          .00278       1.44095      .0165503   --Saturated
                       .00104       1.44567      .0164934   --Undersat gas
                       .00000       1.44848      .0164601 / --Dry gas
   2500.00000          .00710       1.03406      .0203634   --Saturated
                       .00278       1.04186      .0200698   --Undersat gas
                       .00104       1.04497      .0199559   --Undersat gas
                       .00000       1.04684      .0198885 / --Dry gas
   3200.00000          .01567        .83350      .0251337   --Saturated
                       .00710        .84250      .0242956   --Undersat gas
                       .00278        .84707      .0238943   --Undersat gas
                       .00104        .84893      .0237358   --Undersat gas
                       .00000        .85004      .0236415 / --Dry gas
   3900.00000          .03036        .72559      .0307170   --Saturated
                       .01567        .73308      .0289584   --Undersat gas
                       .00710        .73771      .0280088   --Undersat gas
                       .00278        .74016      .0275387   --Undersat gas
                       .00104        .74117      .0273518   --Undersat gas
                       .00000        .74177      .0272404 / --Dry gas
   4460.50453          .04912        .67723      .0361387   --Psat
                       .03036        .68076      .0335633   --Undersat gas
                       .01567        .68421      .0317741   --Undersat gas
                       .00710        .68658      .0307555   --Undersat gas
                       .00278        .68788      .0302486   --Undersat gas
                       .00104        .68842      .0300465   --Undersat gas
                       .00000        .68874      .0299259 / --Dry gas
   4600.00000          .05537        .66713      .0368482   --Undersat
                       .04912        .67007      .0366406   --Undersat gas
                       .03036        .67248      .0342597   --Undersat gas
                       .01567        .67518      .0324475   --Undersat gas
                       .00710        .67709      .0314146   --Undersat gas
                       .00278        .67816      .0309001   --Undersat gas
                       .00104        .67860      .0306949   --Undersat gas
                       .00000        .67614      .0305363 / --Dry gas
 /

--ECLIPSE 100 PVTO data
--(Constant volume depletion)
--Units are FIELD
--Method used : Whitson and Torp

PVTO
--MSCF/STB       PSIG           RB/STB        CPOISE
       .44958     1100.00000        1.29941        .25584   --Saturated
                  1800.00000        1.28495        .27679
                  2500.00000        1.27256        .29704
                  3200.00000        1.26177        .31665
                  3900.00000        1.25226        .33569
                  4460.50453        1.24539        .35054
                  4600.00000        1.24377        .35419 /
       .71364     1800.00000        1.43138        .20757   --Saturated
                  2500.00000        1.41283        .22550
                  3200.00000        1.39704        .24292
                  3900.00000        1.38337        .25989
                  4460.50453        1.37364        .27318
                  4600.00000        1.37136        .27645 /
      1.00947     2500.00000        1.57540        .17233   --Saturated
                  3200.00000        1.55241        .18750
                  3900.00000        1.53293        .20232
                  4460.50453        1.51929        .21397
                  4600.00000        1.51612        .21684 /
      1.36965     3200.00000        1.74970        .14431   --Saturated
                  3900.00000        1.72136        .15698
                  4460.50453        1.70190        .16697
                  4600.00000        1.69742        .16943 /
      1.85124     3900.00000        1.98443        .12027   --Saturated
                  4460.50453        1.95533        .12860
                  4600.00000        1.94871        .13065 /
      2.41321     4460.50453        2.26289        .10232   --Psat
                  4600.00000        2.25324        .10405 /
--    2.59821     4600.00000        2.35579        .09784   --Undersat
--                4604.60000        2.35343        .09794 /
 /
--MSCF/STB       PSIG           RB/STB        CPOISE
       .44958     1100.00000        1.29941        .25584   --Saturated
                  1800.00000        1.28495        .27679
                  2500.00000        1.27256        .29704
                  3200.00000        1.26177        .31665
                  3900.00000        1.25226        .33569
                  4460.50453        1.24539        .35054
                  4600.00000        1.24377        .35419 /
       .71364     1800.00000        1.43138        .20757   --Saturated
                  2500.00000        1.41283        .22550
                  3200.00000        1.39704        .24292
                  3900.00000        1.38337        .25989
                  4460.50453        1.37364        .27318
                  4600.00000        1.37136        .27645 /
      1.00947     2500.00000        1.57540        .17233   --Saturated
                  3200.00000        1.55241        .18750
                  3900.00000        1.53293        .20232
                  4460.50453        1.51929        .21397
                  4600.00000        1.51612        .21684 /
      1.36965     3200.00000        1.74970        .14431   --Saturated
                  3900.00000        1.72136        .15698
                  4460.50453        1.70190        .16697
                  4600.00000        1.69742        .16943 /
      1.85124     3900.00000        1.98443        .12027   --Saturated
                  4460.50453        1.95533        .12860
                  4600.00000        1.94871        .13065 /
      2.41321     4460.50453        2.26289        .10232   --Psat
                  4600.00000        2.25324        .10405 /
--    2.59821     4600.00000        2.35579        .09784   --Undersat
--                4604.60000        2.35343        .09794 /
 /

ROCK
 4000.00        .30E-05 /
 4000.00        .30E-05 /

RPTPROPS                                         FIELD   15:44 26 FEB 91
   -- PROPS Reporting Options
   -- 
   'PVTO' 'PVDO' 'PVTW' 'PVTG' 'PVDG' 'DENSITY' 'GRAVITY' 'SDENSITY' 'ROCK' 
   'ROCKTAB' 'TRACER' 
/

REGIONS     ============================================================

EQUALS                                           FIELD   18:09 29 NOV 83
'SATNUM  ' 1 ,  1,  4  ,  1,  4  ,  1,  1  /
'SATNUM  ' 2 ,  1,  4  ,  1,  4  ,  2,  2  /
/

RPTREGS                                          FIELD   15:45 26 FEB 91
  -- Controls on output from regions section
  -- 
  'SATNUM' 'EQLNUM' 'FIPNUM' 
  /
 

SOLUTION   =============================================================

EQUIL

4000  3959  6000  0   4000  0   0   0   0  /

RPTSOL                                           FIELD   15:45 26 FEB 91
   -- Initialisation Print Output
   -- 
   'PRES' 'SOIL' 'SWAT' 'SGAS' 'RS' 'RV' 'RESTART=2' 'FIP=2' 'EQUIL' 'RSVD' 
/
SUMMARY    ==========================================================
FPR
FWCT
FOPR

WWCT
/
SCHEDULE   ===========================================================


RPTSCHED                                         FIELD   15:45 26 FEB 91
   'PRES' 'SOIL' 'SWAT' 'SGAS' 'RS' 'RV' 'RESTART=2' 'FIP=2' 'WELLS=2' 'CPU=2' 
'NEWTON=2' 'POILD' 'PWAT' 'PWATD' /

TSTEP
 1 /

WELSPECS
'I'  'G'   1  1  4000  'WAT'  /
'P'  'G'   4  4  4000  'OIL'  /
/

COMPDAT                                          FIELD   18:10 29 NOV 83
'I       '   1   1   2   2 'OPEN'   0  .000000  .5000  .00000   .0000 0.000E-01/
'P       '   4   4   2   2 'OPEN'   0  .000000  .5000  .00000   .0000 0.000E-01/
/

WCONINJE                                         FIELD   18:10 29 NOV 83
'I       ','GAS','OPEN','RESV' 1*     100.0  /     
/

WCONPROD                                         FIELD   18:11 29 NOV 83
'P       ','OPEN','RESV'     1.0E20      1.0E20      1.0E20
 1.0E20        100.0     .000000   .000000    0  .00000000/
/

TSTEP
 11*100
/

RPTSCHED                                         FIELD   10:17 13 JUN 85
   'PRES' 'SWAT' 'RESTART=2' 'FIP=2' 'WELLS=2' 'CPU=2' 'NEWTON=2' /

TSTEP
  100.0 /

END
