--Saturation endpoint table vs depth                                           
RUNSPEC
TITLE
     TEST OF ENHANCED END POINT SCALING TEST MODEL                   2

DIMENS
    5    1   20  /

OIL

WATER

FIELD

EQLDIMS
    1   50   20    1   20 /

EQLOPTS
                                  'MOBILE'   /

ENDSCALE
'NODIR'     'REVERS'           1   10  /

WELLDIMS
    1   20    1    1 /

START
   1 'JAN' 1988  /

FMTOUT

FMTIN

OPTIONS
0 0 0 0 0 0 0 0 0 0
0 1 1 /

GRID     =============================================================


NOGGF

ACTNUM
  100*1 /

DX
 100*2000.0 /

DY
 100*2000.0  /

DZ
 95*10.0  5*500.0 /

BOX
1 5 1 1 1 1 /

TOPS
 5*5110.0 /

OLDTRANR

BOX
1 5 1 1 1 20 /

EQUALS
    'NTG'   0.900  /
    'PORO'  0.180  /
    'PERMX' 500.0  /
    'PERMZ' 5.0    /
/

RPTGRID
  -- Report Levels for Grid Section Data
  -- 
  'DX' 
  'DY' 
  'DZ' 
  'PERMX' 
  'PERMZ' 
  'PORO' 
  'NTG' 
  'TOPS' 
  'PORV' 
  'DEPTH' 
  'TRANX' 
  'TRANZ' 
 / 

PSEUDO

PROPS    =======================================================

DENSITY
51.711  71.126  0.0842 /

PVDO
     1086.0   1.243   0.899
     1500.0   1.242   0.941
     2000.0   1.236   0.992
     2436.0   1.231   1.036
     3000.0   1.224   1.093
     4000.0   1.213   1.194  /

PVTW
     2500.0    1.011      2.95E-6    0.5118     2.9E-6  /

ROCK
     2500.0     3.8E-6  /

RSCONST
    0.357   1086.0  /

ENPTVD
   5100.0   0.338  0.4717   1.0  3*  0.275  1*
   5400.0   0.338  0.4717   1.0  3*  0.275  1*  /

SCALELIM
0.15 /

SOF2
    0.275     0.000
    0.310     0.002
    0.352     0.013
    0.391     0.030
    0.430     0.062
    0.468     0.121
    0.507     0.219
    0.546     0.360
    0.585     0.540
    0.623     0.745
    0.636     0.810
    0.642     0.890
    0.662     1.000 /

SWFN
    0.338     0.000      50.070
    0.358     0.002      33.380
    0.364     0.006      25.035
    0.377     0.010      16.333
    0.415     0.021       7.778
    0.454     0.036       4.321
    0.493     0.053       3.351
    0.532     0.074       2.472
    0.570     0.100       1.899
    0.609     0.135       1.478
    0.648     0.182       1.162
    0.686     0.261       0.925
    0.725     0.456       0.728
    1.000     1.000       0.000  /


RPTPROPS
-- PROPS Reporting Options
-- 
'PVTO' 'PVDO' 'DENSITY' 'GRAVITY' 'SDENSITY' 'ROCK' 'ROCKTAB' 'MLANG' 'MLANGSLV' 
/

REGIONS             ========================================


BOX
   1  5   1  1  1  20  /

EQUALS
   'EQLNUM'  1  /
   'PVTNUM'  1  /
   'FIPNUM'  1  /
   'SATNUM'  1  /
   'ENDNUM'  1  /
/

RPTREGS
-- Controls on output from regions section
-- 
'PVTNUM' 'SATNUM' 'EQLNUM' 'FIPNUM' 'KRNUMX' 'KRNUMZ' 
'ENDNUM' 
/

SOLUTION    =============================================================

DATUM
  5200.0  /

EQUIL
   5200.0  2450.0  5300.0  0.0  /

RPTSOL
-- Initialisation Print Output
-- 
'PRES' 'SOIL' 'SWAT' 'FIP=1' 'EQUIL' 'POILD' 'PWAT' 'PWATD' 'SOWCR' 'SOGCR' 
'SWCO' 'SGCO' /

SUMMARY  ==========================================================

FOPR
FWPR
FWCT
FOPT
FWPT
FWGR

RUNSUM

SCHEDULE  =======================================================

WELSPECS
'WELLA'  'G'   1  1  5200.0    'OIL'   /
/

COMPDAT
'WELLA'     1   1    1    16  'O'     0     0     .269   /
/

WCONPROD
   'WELLA'  'OPEN'  'ORAT'  1000.0  4*1.0E20  1200.0            /
/

RPTSCHED
'PRES' 'SWAT' 'WELLS=2' 'CPU=2' 'NEWTON=2' /

DATES
 1 'JAN' 1989 /
 1 'JAN' 1990 /
 1 'JAN' 1991 /
 1 'JAN' 1992 /
 1 'JAN' 1993 /
 1 'JAN' 1994 /
 1 'JAN' 1995 /
/

END
