-- This is the model used to test foam injection. From ECLIPSE2008.1, foam model has been extended to
-- provide water as a transport phase in addition to gas. The net MRF is comprised of a set of individual reduction factor
-- contributions due to surfactant concentration, oil saturation, water saturation and capillary number.

RUNSPEC    ==========================================================

TITLE
   Foam injection    /

DIMENS
   100   1    3 /

OIL

WATER

GAS

DISGAS

FOAM

FIELD

TABDIMS
   1    1   50    20    20   20 /

REGDIMS
    2    1    0    0 /

WELLDIMS
    5    5    5    5 /

START
   1 'JAN' 1983  /

UNIFOUT

UNIFIN

GRID      ==============================================================



INIT

TOPS
   100*5000.0 /
DX
   300*100. /
DY 
   300*100 /
DZ     
   300*10. /

EQUALS
'PERMX'  200 1 100 1 1 1 1 /
'PERMX'  50  1 100 1 1 2 2 /
'PERMX'  350 1 100 1 1 3 3 /
'PORO'   0.2 1 100 1 1 1 3 /
/




COPY
'PERMX' 'PERMY' /
'PERMX' 'PERMZ' /
/

MULTIPLY
'PERMZ' 0.1 /
/

PROPS     ==============================================================

SWFN
    0.12  0       0
    1.0   1       0  /

--
--  SGAS   KRG   PCOG
--
SGFN

    0     0       0
    0.88  1       0
/

-- OIL RELATIVE PERMEABILITY IS TABULATED AGAINST OIL SATURATION
-- FOR OIL-WATER AND OIL-GAS-CONNATE WATER CASES
--
--  SOIL     KROW     KROG
SOF3

    0        0        0
    0.88     1        1    /

RPTPROPS

  8*0 /
  

DENSITY
        49.94    62.43    0.061    /

ROCK
        4000   4.0E-6   /

PVTW
        4000   1.00    3.0E-6     0.50   0   /

PVTO
0.165   400  1.012   .40  /
0.335   800  1.0255  .39  /
0.500  1200  1.038   .38  /
0.665  1600  1.051   .37  /
0.828  2000  1.063   .36  /
0.985  2400  1.075   .35  /
1.130  2800  1.087   .34
       3200  1.080   .35
       3600  1.074   .36
       4000  1.068   .37
       4400  1.062   .38  /
/

PVDG
 400  5.90  0.013
 800  2.95  0.0135
1200  1.96  0.014
1600  1.47  0.0145
2000  1.18  0.015
2400  0.98  0.0155
2800  0.84  0.016
3200  0.74  0.0165
3600  0.65  0.017
4000  0.56  0.0175
4400  0.51  0.018
/

-- FOAM ADSOPTION ISOTHERMS
-- Gas MRF dependence upon surfactant concentration

FOAMFSC
--  Csr           es
--(lb/stb)
 
 0.0035         2/
 

-- ROCK DENSITY 



-- Sandstone = 2000 - 2800 kg/m3
-- Reversible adsorption

FOAMROCK
 1  930 /




-- SURFACTANT ADSORPTION ONTO THE ROCK SURFACE


FOAMADS

0       0
3.5E-6	0.000000
3.5E-5	0.0000010
3.5E-4	0.0000040
0.0035	0.0000250
0.0123	0.0000480
0.035	0.0000480
0.35	0.0000480
3.5	0.0000480   /


-- FOAM MOBILITY REDUCTION FUNCTIONAL DEPENDENCE UPON CAPILLARY NUMBER


FOAMFCN

-- reference Nc   exponent (ec)  

     7.84E-8         1.0  /


-- GAS-WATER SURFACE TENSION VS FOAM SURFACTANT CONCENTRATION

FOAMFST

--surfactant conc.     gas-water surface tension
--   (lb/stb)                 (lbf/in)

-- Conc          ST

3.5E-4	2.855E-4
0.0035	1.370E-4
0.0123	5.139E-5
0.035	5.139E-5
0.35	5.139E-5 /


--FOAM Carrier is water

FOAMOPTS
 WATER FUNC /




--Reference mobility reduction factor

FOAMFRM       
  50 /


-- Gas MRF dependence upon water saturation

FOAMFSW



 0.3   2 / 

FOAMFSO

--  max. So       eo

     0.7           1  /



RPTPROPS
 'FOAM'   'DENSITY' / 

SOLUTION  *************************************************************

PRESSURE
300*5300 /

SWAT
300*0.35 /

SGAS
300*0   /

RS
300*1.13 /

SUMMARY    =============================================================

ALL

FOE

BPR
1  1 1 /
10 1 1 /
50 1 1 /
80 1 1 /
100 1 1 /
/
BOSAT
1  1 1 /
10 1 1 /
50 1 1 /
80 1 1 /
100 1 1 /
/
BWSAT
1  1 1 /
10 1 1 /
50 1 1 /
80 1 1 /
100 1 1 /
/
BGSAT
1  1 1 /
10 1 1 /
50 1 1 /
80 1 1 /
100 1 1 /
/



-- SPECIAL REPORTS FOR FOAM

FTPRFOA
FTPTFOA
FTIRFOA
FTITFOA
FTIPTFOA
FTADSFOA
FTDCYFOA
FTMOBFOA

WTPRFOA
/
WTIRFOA
/

BTCNFFOA
1  1 1 /
10 1 1 /
50 1 1 /
80 1 1 /
100 1 1 /
/
BTCNMFOA
1  1 1 /
10 1 1 /
50 1 1 /
80 1 1 /
100 1 1 /
/
BTIPTFOA	
1  1 1 /
10 1 1 /
50 1 1 /
80 1 1 /
100 1 1 /
/
BTADSFOA	
1  1 1 /
10 1 1 /
50 1 1 /
80 1 1 /
100 1 1 /
/
BTDCYFOA	
1  1 1 /
10 1 1 /
50 1 1 /
80 1 1 /
100 1 1 /
/
BTMOBFOA	
1  1 1 /

10 1 1 /
50 1 1 /
80 1 1 /
100 1 1 /
/
BTHLFFOA	
1  1 1 /
10 1 1 /
50 1 1 /
80 1 1 /
100 1 1 /
/

PERFORMA

SCHEDULE   =============================================================
TUNING
 1* 10 /
/
2* 50 1* 200 100/

RPTSCHED
FIPFOAM /

RPTRST
'BASIC=2' /

WELSPECS
'IG'  'G'   1    1  5000  'GAS'    0.0  'STD'  'SHUT'  'NO'  /
'IW'  'G'   1    1  5000  'WATER'  0.0  'STD'  'SHUT'  'NO'  /
'P'  'G'   100   1  5000  'OIL'    0.0  'STD'  'SHUT'  'NO'  /
/

COMPDAT
'I*       '   1   1   1   3 'OPEN'   0  .0   1.0 /
'P       '   100  1   1   3 'OPEN'   0  .0   1.0 /
/

WCONPROD
'P' 'OPEN' 'ORAT' 200.0 4* 2000.0 /
/

WCONINJE
'IG' 'GAS'   'OPEN' 'RATE' 1000.0 1* 10000 /
'IW' 'WATER' 'OPEN' 'RATE' 100.0  1* 10000 /
/

WELOPEN
'IG' 'SHUT' /
/
WFOAM
 'IW'  3.0 /
/

TSTEP
1.0 9.0 90 30.0 /

WELOPEN
'IW' 'SHUT' /
'IG' 'OPEN' /
/


TSTEP 
99*30 30*10 /


END


