--
RUNSPEC
TITLE
GAS CUSPING MODEL

DIMENS
   10   10    1  /

OIL

WATER

GAS

DISGAS

FIELD

WELLDIMS
    2   20    0    2 /

LGR
       2         200           0    0    0   10  'NOINTERP' /

AQUDIMS
    0    0    0    0    1   10 /

START
   1 'JAN' 1990  /

GRID

GRIDFILE
   2
/

COORD
    32.22900       29.31269       6955.440       32.22900       29.31269
    7055.440
    352.4117       29.31269       6955.429       352.4117       29.31269
    7055.429
    672.5943       29.31269       6955.442       672.5943       29.31269
    7055.442
    992.7770       29.31269       6955.439       992.7770       29.31269
    7055.439
    1312.960       29.31269       6955.440       1312.960       29.31269
    7055.440
    1633.142       29.31269       6955.439       1633.142       29.31269
    7055.439
    1953.325       29.31269       6955.438       1953.325       29.31269
    7055.438
    2273.508       29.31269       6955.439       2273.508       29.31269
    7055.439
    2593.690       29.31269       6955.443       2593.690       29.31269
    7055.443
    2913.873       29.31269       6955.442       2913.873       29.31269
    7055.442
    3234.056       29.31269       6955.442       3234.056       29.31269
    7055.442

    32.22900       349.7981       7011.393       32.22900       349.7981
    7111.393
    352.4117       349.7981       7011.389       352.4117       349.7981
    7111.389
    672.5943       349.7981       7011.393       672.5943       349.7981
    7111.393
    992.7770       349.7981       7011.393       992.7770       349.7981
    7111.393
    1312.960       349.7981       7011.392       1312.960       349.7981
    7111.392
    1633.142       349.7981       7011.393       1633.142       349.7981
    7111.393
    1953.325       349.7981       7011.393       1953.325       349.7981
    7111.393
    2273.508       349.7981       7011.393       2273.508       349.7981
    7111.393
    2593.690       349.7981       7011.396       2593.690       349.7981
    7111.396
    2913.873       349.7981       7011.391       2913.873       349.7981
    7111.391
    3234.056       349.7981       7011.396       3234.056       349.7981
    7111.396

    32.22900       670.2836       7070.699       32.22900       670.2836
    7170.699
    352.4117       670.2836       7070.705       352.4117       670.2836
    7170.705
    672.5943       670.2836       7070.704       672.5943       670.2836
    7170.704
    992.7770       670.2836       7070.707       992.7770       670.2836
    7170.707
    1312.960       670.2836       7070.705       1312.960       670.2836
    7170.705
    1633.142       670.2836       7070.705       1633.142       670.2836
    7170.705
    1953.325       670.2836       7070.704       1953.325       670.2836
    7170.704
    2273.508       670.2836       7070.705       2273.508       670.2836
    7170.705
    2593.690       670.2836       7070.705       2593.690       670.2836
    7170.705
    2913.873       670.2836       7070.707       2913.873       670.2836
    7170.707
    3234.056       670.2836       7070.710       3234.056       670.2836
    7170.710

    32.22900       990.7690       7130.023       32.22900       990.7690
    7230.023
    352.4117       990.7690       7130.020       352.4117       990.7690
    7230.020
    672.5943       990.7690       7130.018       672.5943       990.7690
    7230.018
    992.7770       990.7690       7130.019       992.7770       990.7690
    7230.019
    1312.960       990.7690       7130.018       1312.960       990.7690
    7230.018
    1633.142       990.7690       7130.020       1633.142       990.7690
    7230.020
    1953.325       990.7690       7130.019       1953.325       990.7690
    7230.019
    2273.508       990.7690       7130.019       2273.508       990.7690
    7230.019
    2593.690       990.7690       7130.019       2593.690       990.7690
    7230.019
    2913.873       990.7690       7130.018       2913.873       990.7690
    7230.018
    3234.056       990.7690       7130.020       3234.056       990.7690
    7230.020

    32.22900       1311.254       7189.330       32.22900       1311.254
    7289.330
    352.4117       1311.254       7189.330       352.4117       1311.254
    7289.330
    672.5943       1311.254       7189.331       672.5943       1311.254
    7289.331
    992.7770       1311.254       7189.332       992.7770       1311.254
    7289.332
    1312.960       1311.254       7189.331       1312.960       1311.254
    7289.331
    1633.142       1311.254       7189.332       1633.142       1311.254
    7289.332
    1953.325       1311.254       7189.330       1953.325       1311.254
    7289.330
    2273.508       1311.254       7189.331       2273.508       1311.254
    7289.331
    2593.690       1311.254       7189.332       2593.690       1311.254
    7289.332
    2913.873       1311.254       7189.331       2913.873       1311.254
    7289.331
    3234.056       1311.254       7189.331       3234.056       1311.254
    7289.331

    32.22900       1631.740       7248.644       32.22900       1631.740
    7348.644
    352.4117       1631.740       7248.645       352.4117       1631.740
    7348.645
    672.5943       1631.740       7248.643       672.5943       1631.740
    7348.643
    992.7770       1631.740       7248.645       992.7770       1631.740
    7348.645
    1312.960       1631.740       7248.644       1312.960       1631.740
    7348.644
    1633.142       1631.740       7248.643       1633.142       1631.740
    7348.643
    1953.325       1631.740       7248.644       1953.325       1631.740
    7348.644
    2273.508       1631.740       7248.644       2273.508       1631.740
    7348.644
    2593.690       1631.740       7248.643       2593.690       1631.740
    7348.643
    2913.873       1631.740       7248.644       2913.873       1631.740
    7348.644
    3234.056       1631.740       7248.645       3234.056       1631.740
    7348.645

    32.22900       1952.225       7307.956       32.22900       1952.225
    7407.956
    352.4117       1952.225       7307.956       352.4117       1952.225
    7407.956
    672.5943       1952.225       7307.955       672.5943       1952.225
    7407.955
    992.7770       1952.225       7307.956       992.7770       1952.225
    7407.956
    1312.960       1952.225       7307.956       1312.960       1952.225
    7407.956
    1633.142       1952.225       7307.957       1633.142       1952.225
    7407.957
    1953.325       1952.225       7307.956       1953.325       1952.225
    7407.956
    2273.508       1952.225       7307.956       2273.508       1952.225
    7407.956
    2593.690       1952.225       7307.957       2593.690       1952.225
    7407.957
    2913.873       1952.225       7307.956       2913.873       1952.225
    7407.956
    3234.056       1952.225       7307.956       3234.056       1952.225
    7407.956

    32.22900       2272.711       7367.262       32.22900       2272.711
    7467.262
    352.4117       2272.711       7367.269       352.4117       2272.711
    7467.269
    672.5943       2272.711       7367.270       672.5943       2272.711
    7467.270
    992.7770       2272.711       7367.270       992.7770       2272.711
    7467.270
    1312.960       2272.711       7367.268       1312.960       2272.711
    7467.268
    1633.142       2272.711       7367.268       1633.142       2272.711
    7467.268
    1953.325       2272.711       7367.269       1953.325       2272.711
    7467.269
    2273.508       2272.711       7367.269       2273.508       2272.711
    7467.269
    2593.690       2272.711       7367.269       2593.690       2272.711
    7467.269
    2913.873       2272.711       7367.270       2913.873       2272.711
    7467.270
    3234.056       2272.711       7367.271       3234.056       2272.711
    7467.271

    32.22900       2593.196       7426.591       32.22900       2593.196
    7526.591
    352.4117       2593.196       7426.585       352.4117       2593.196
    7526.585
    672.5943       2593.196       7426.581       672.5943       2593.196
    7526.581
    992.7770       2593.196       7426.582       992.7770       2593.196
    7526.582
    1312.960       2593.196       7426.585       1312.960       2593.196
    7526.585
    1633.142       2593.196       7426.582       1633.142       2593.196
    7526.582
    1953.325       2593.196       7426.582       1953.325       2593.196
    7526.582
    2273.508       2593.196       7426.582       2273.508       2593.196
    7526.582
    2593.690       2593.196       7426.582       2593.690       2593.196
    7526.582
    2913.873       2593.196       7426.579       2913.873       2593.196
    7526.579
    3234.056       2593.196       7426.584       3234.056       2593.196
    7526.584

    32.22900       2913.682       7485.899       32.22900       2913.682
    7585.899
    352.4117       2913.682       7485.897       352.4117       2913.682
    7585.897
    672.5943       2913.682       7485.892       672.5943       2913.682
    7585.892
    992.7770       2913.682       7485.896       992.7770       2913.682
    7585.896
    1312.960       2913.682       7485.895       1312.960       2913.682
    7585.895
    1633.142       2913.682       7485.895       1633.142       2913.682
    7585.895
    1953.325       2913.682       7485.895       1953.325       2913.682
    7585.895
    2273.508       2913.682       7485.895       2273.508       2913.682
    7585.895
    2593.690       2913.682       7485.896       2593.690       2913.682
    7585.896
    2913.873       2913.682       7485.899       2913.873       2913.682
    7585.899
    3234.056       2913.682       7485.901       3234.056       2913.682
    7585.901

    32.22900       3234.167       7542.352       32.22900       3234.167
    7642.352
    352.4117       3234.167       7542.363       352.4117       3234.167
    7642.363
    672.5943       3234.167       7542.365       672.5943       3234.167
    7642.365
    992.7770       3234.167       7542.365       992.7770       3234.167
    7642.365
    1312.960       3234.167       7542.358       1312.960       3234.167
    7642.358
    1633.142       3234.167       7542.362       1633.142       3234.167
    7642.362
    1953.325       3234.167       7542.361       1953.325       3234.167
    7642.361
    2273.508       3234.167       7542.363       2273.508       3234.167
    7642.363
    2593.690       3234.167       7542.363       2593.690       3234.167
    7642.363
    2913.873       3234.167       7542.359       2913.873       3234.167
    7642.359
    3234.056       3234.167       7542.363       3234.056       3234.167
    7642.363

  /

ZCORN
    6955.440       6955.429       6955.429       6955.442       6955.442
    6955.439       6955.439       6955.440       6955.440       6955.439
    6955.439       6955.438       6955.438       6955.439       6955.439
    6955.443       6955.443       6955.442       6955.442       6955.442

    7011.393       7011.389       7011.389       7011.393       7011.393
    7011.393       7011.393       7011.392       7011.392       7011.393
    7011.393       7011.393       7011.393       7011.393       7011.393
    7011.396       7011.396       7011.391       7011.391       7011.396

    7011.393       7011.389       7011.389       7011.393       7011.393
    7011.393       7011.393       7011.392       7011.392       7011.393
    7011.393       7011.393       7011.393       7011.393       7011.393
    7011.396       7011.396       7011.391       7011.391       7011.396

    7070.699       7070.705       7070.705       7070.704       7070.704
    7070.707       7070.707       7070.705       7070.705       7070.705
    7070.705       7070.704       7070.704       7070.705       7070.705
    7070.705       7070.705       7070.707       7070.707       7070.710

    7070.699       7070.705       7070.705       7070.704       7070.704
    7070.707       7070.707       7070.705       7070.705       7070.705
    7070.705       7070.704       7070.704       7070.705       7070.705
    7070.705       7070.705       7070.707       7070.707       7070.710

    7130.023       7130.020       7130.020       7130.018       7130.018
    7130.019       7130.019       7130.018       7130.018       7130.020
    7130.020       7130.019       7130.019       7130.019       7130.019
    7130.019       7130.019       7130.018       7130.018       7130.020

    7130.023       7130.020       7130.020       7130.018       7130.018
    7130.019       7130.019       7130.018       7130.018       7130.020
    7130.020       7130.019       7130.019       7130.019       7130.019
    7130.019       7130.019       7130.018       7130.018       7130.020

    7189.330       7189.330       7189.330       7189.331       7189.331
    7189.332       7189.332       7189.331       7189.331       7189.332
    7189.332       7189.330       7189.330       7189.331       7189.331
    7189.332       7189.332       7189.331       7189.331       7189.331

    7189.330       7189.330       7189.330       7189.331       7189.331
    7189.332       7189.332       7189.331       7189.331       7189.332
    7189.332       7189.330       7189.330       7189.331       7189.331
    7189.332       7189.332       7189.331       7189.331       7189.331

    7248.644       7248.645       7248.645       7248.643       7248.643
    7248.645       7248.645       7248.644       7248.644       7248.643
    7248.643       7248.644       7248.644       7248.644       7248.644
    7248.643       7248.643       7248.644       7248.644       7248.645

    7248.644       7248.645       7248.645       7248.643       7248.643
    7248.645       7248.645       7248.644       7248.644       7248.643
    7248.643       7248.644       7248.644       7248.644       7248.644
    7248.643       7248.643       7248.644       7248.644       7248.645

    7307.956       7307.956       7307.956       7307.955       7307.955
    7307.956       7307.956       7307.956       7307.956       7307.957
    7307.957       7307.956       7307.956       7307.956       7307.956
    7307.957       7307.957       7307.956       7307.956       7307.956

    7307.956       7307.956       7307.956       7307.955       7307.955
    7307.956       7307.956       7307.956       7307.956       7307.957
    7307.957       7307.956       7307.956       7307.956       7307.956
    7307.957       7307.957       7307.956       7307.956       7307.956

    7367.262       7367.269       7367.269       7367.270       7367.270
    7367.270       7367.270       7367.268       7367.268       7367.268
    7367.268       7367.269       7367.269       7367.269       7367.269
    7367.269       7367.269       7367.270       7367.270       7367.271

    7367.262       7367.269       7367.269       7367.270       7367.270
    7367.270       7367.270       7367.268       7367.268       7367.268
    7367.268       7367.269       7367.269       7367.269       7367.269
    7367.269       7367.269       7367.270       7367.270       7367.271

    7426.591       7426.585       7426.585       7426.581       7426.581
    7426.582       7426.582       7426.585       7426.585       7426.582
    7426.582       7426.582       7426.582       7426.582       7426.582
    7426.582       7426.582       7426.579       7426.579       7426.584

    7426.591       7426.585       7426.585       7426.581       7426.581
    7426.582       7426.582       7426.585       7426.585       7426.582
    7426.582       7426.582       7426.582       7426.582       7426.582
    7426.582       7426.582       7426.579       7426.579       7426.584

    7485.899       7485.897       7485.897       7485.892       7485.892
    7485.896       7485.896       7485.895       7485.895       7485.895
    7485.895       7485.895       7485.895       7485.895       7485.895
    7485.896       7485.896       7485.899       7485.899       7485.901

    7485.899       7485.897       7485.897       7485.892       7485.892
    7485.896       7485.896       7485.895       7485.895       7485.895
    7485.895       7485.895       7485.895       7485.895       7485.895
    7485.896       7485.896       7485.899       7485.899       7485.901

    7542.352       7542.363       7542.363       7542.365       7542.365
    7542.365       7542.365       7542.358       7542.358       7542.362
    7542.362       7542.361       7542.361       7542.363       7542.363
    7542.363       7542.363       7542.359       7542.359       7542.363

    7055.440       7055.429       7055.429       7055.442       7055.442
    7055.439       7055.439       7055.440       7055.440       7055.439
    7055.439       7055.438       7055.438       7055.439       7055.439
    7055.443       7055.443       7055.442       7055.442       7055.442

    7111.393       7111.389       7111.389       7111.393       7111.393
    7111.393       7111.393       7111.392       7111.392       7111.393
    7111.393       7111.393       7111.393       7111.393       7111.393
    7111.396       7111.396       7111.391       7111.391       7111.396

    7111.393       7111.389       7111.389       7111.393       7111.393
    7111.393       7111.393       7111.392       7111.392       7111.393
    7111.393       7111.393       7111.393       7111.393       7111.393
    7111.396       7111.396       7111.391       7111.391       7111.396

    7170.699       7170.705       7170.705       7170.704       7170.704
    7170.707       7170.707       7170.705       7170.705       7170.705
    7170.705       7170.704       7170.704       7170.705       7170.705
    7170.705       7170.705       7170.707       7170.707       7170.710

    7170.699       7170.705       7170.705       7170.704       7170.704
    7170.707       7170.707       7170.705       7170.705       7170.705
    7170.705       7170.704       7170.704       7170.705       7170.705
    7170.705       7170.705       7170.707       7170.707       7170.710

    7230.023       7230.020       7230.020       7230.018       7230.018
    7230.019       7230.019       7230.018       7230.018       7230.020
    7230.020       7230.019       7230.019       7230.019       7230.019
    7230.019       7230.019       7230.018       7230.018       7230.020

    7230.023       7230.020       7230.020       7230.018       7230.018
    7230.019       7230.019       7230.018       7230.018       7230.020
    7230.020       7230.019       7230.019       7230.019       7230.019
    7230.019       7230.019       7230.018       7230.018       7230.020

    7289.330       7289.330       7289.330       7289.331       7289.331
    7289.332       7289.332       7289.331       7289.331       7289.332
    7289.332       7289.330       7289.330       7289.331       7289.331
    7289.332       7289.332       7289.331       7289.331       7289.331

    7289.330       7289.330       7289.330       7289.331       7289.331
    7289.332       7289.332       7289.331       7289.331       7289.332
    7289.332       7289.330       7289.330       7289.331       7289.331
    7289.332       7289.332       7289.331       7289.331       7289.331

    7348.644       7348.645       7348.645       7348.643       7348.643
    7348.645       7348.645       7348.644       7348.644       7348.643
    7348.643       7348.644       7348.644       7348.644       7348.644
    7348.643       7348.643       7348.644       7348.644       7348.645

    7348.644       7348.645       7348.645       7348.643       7348.643
    7348.645       7348.645       7348.644       7348.644       7348.643
    7348.643       7348.644       7348.644       7348.644       7348.644
    7348.643       7348.643       7348.644       7348.644       7348.645

    7407.956       7407.956       7407.956       7407.955       7407.955
    7407.956       7407.956       7407.956       7407.956       7407.957
    7407.957       7407.956       7407.956       7407.956       7407.956
    7407.957       7407.957       7407.956       7407.956       7407.956

    7407.956       7407.956       7407.956       7407.955       7407.955
    7407.956       7407.956       7407.956       7407.956       7407.957
    7407.957       7407.956       7407.956       7407.956       7407.956
    7407.957       7407.957       7407.956       7407.956       7407.956

    7467.262       7467.269       7467.269       7467.270       7467.270
    7467.270       7467.270       7467.268       7467.268       7467.268
    7467.268       7467.269       7467.269       7467.269       7467.269
    7467.269       7467.269       7467.270       7467.270       7467.271

    7467.262       7467.269       7467.269       7467.270       7467.270
    7467.270       7467.270       7467.268       7467.268       7467.268
    7467.268       7467.269       7467.269       7467.269       7467.269
    7467.269       7467.269       7467.270       7467.270       7467.271

    7526.591       7526.585       7526.585       7526.581       7526.581
    7526.582       7526.582       7526.585       7526.585       7526.582
    7526.582       7526.582       7526.582       7526.582       7526.582
    7526.582       7526.582       7526.579       7526.579       7526.584

    7526.591       7526.585       7526.585       7526.581       7526.581
    7526.582       7526.582       7526.585       7526.585       7526.582
    7526.582       7526.582       7526.582       7526.582       7526.582
    7526.582       7526.582       7526.579       7526.579       7526.584

    7585.899       7585.897       7585.897       7585.892       7585.892
    7585.896       7585.896       7585.895       7585.895       7585.895
    7585.895       7585.895       7585.895       7585.895       7585.895
    7585.896       7585.896       7585.899       7585.899       7585.901

    7585.899       7585.897       7585.897       7585.892       7585.892
    7585.896       7585.896       7585.895       7585.895       7585.895
    7585.895       7585.895       7585.895       7585.895       7585.895
    7585.896       7585.896       7585.899       7585.899       7585.901

    7642.352       7642.363       7642.363       7642.365       7642.365
    7642.365       7642.365       7642.358       7642.358       7642.362
    7642.362       7642.361       7642.361       7642.363       7642.363
    7642.363       7642.363       7642.359       7642.359       7642.363

  /

CARFIN
-- LGR name   I1  I2  J1  J2  K1  K2  NX  NY  NZ --
  'LGR0001 '   8   8   4   4   1   1   5   5   5 /

COORD
    2273.508       990.7690       7130.019       2273.508       990.7690
    7230.019
    2369.563       990.7690       7130.019       2369.563       990.7690
    7230.019
    2417.590       990.7690       7130.019       2417.590       990.7690
    7230.019
    2449.608       990.7690       7130.019       2449.608       990.7690
    7230.019
    2497.636       990.7690       7130.019       2497.636       990.7690
    7230.019
    2593.690       990.7690       7130.019       2593.690       990.7690
    7230.019

    2273.508       1070.890       7144.847       2273.508       1070.890
    7244.847
    2369.563       1070.890       7144.847       2369.563       1070.890
    7244.847
    2417.590       1070.890       7144.847       2417.590       1070.890
    7244.847
    2449.608       1070.890       7144.847       2449.608       1070.890
    7244.847
    2497.636       1070.890       7144.847       2497.636       1070.890
    7244.847
    2593.690       1070.890       7144.847       2593.690       1070.890
    7244.847

    2273.508       1134.987       7156.709       2273.508       1134.987
    7256.709
    2369.563       1134.987       7156.709       2369.563       1134.987
    7256.709
    2417.590       1134.987       7156.709       2417.590       1134.987
    7256.709
    2449.608       1134.987       7156.709       2449.608       1134.987
    7256.709
    2497.636       1134.987       7156.709       2497.636       1134.987
    7256.709
    2593.690       1134.987       7156.709       2593.690       1134.987
    7256.709

    2273.508       1167.036       7162.641       2273.508       1167.036
    7262.641
    2369.563       1167.036       7162.641       2369.563       1167.036
    7262.641
    2417.590       1167.036       7162.641       2417.590       1167.036
    7262.641
    2449.608       1167.036       7162.641       2449.608       1167.036
    7262.641
    2497.636       1167.036       7162.641       2497.636       1167.036
    7262.641
    2593.690       1167.036       7162.641       2593.690       1167.036
    7262.641

    2273.508       1231.133       7174.503       2273.508       1231.133
    7274.503
    2369.563       1231.133       7174.503       2369.563       1231.133
    7274.503
    2417.590       1231.133       7174.503       2417.590       1231.133
    7274.503
    2449.608       1231.133       7174.503       2449.608       1231.133
    7274.503
    2497.636       1231.133       7174.503       2497.636       1231.133
    7274.503
    2593.690       1231.133       7174.503       2593.690       1231.133
    7274.503

    2273.508       1311.254       7189.331       2273.508       1311.254
    7289.331
    2369.563       1311.254       7189.331       2369.563       1311.254
    7289.331
    2417.590       1311.254       7189.331       2417.590       1311.254
    7289.331
    2449.608       1311.254       7189.331       2449.608       1311.254
    7289.331
    2497.636       1311.254       7189.331       2497.636       1311.254
    7289.331
    2593.690       1311.254       7189.332       2593.690       1311.254
    7289.332

  /

ZCORN
    7130.019       7130.019       7130.019       7130.019       7130.019
    7130.019       7130.019       7130.019       7130.019       7130.019

    7144.847       7144.847       7144.847       7144.847       7144.847
    7144.847       7144.847       7144.847       7144.847       7144.847

    7144.847       7144.847       7144.847       7144.847       7144.847
    7144.847       7144.847       7144.847       7144.847       7144.847

    7156.709       7156.709       7156.709       7156.709       7156.709
    7156.709       7156.709       7156.709       7156.709       7156.709

    7156.709       7156.709       7156.709       7156.709       7156.709
    7156.709       7156.709       7156.709       7156.709       7156.709

    7162.641       7162.641       7162.641       7162.641       7162.641
    7162.641       7162.641       7162.641       7162.641       7162.641

    7162.641       7162.641       7162.641       7162.641       7162.641
    7162.641       7162.641       7162.641       7162.641       7162.641

    7174.503       7174.503       7174.503       7174.503       7174.503
    7174.503       7174.503       7174.503       7174.503       7174.503

    7174.503       7174.503       7174.503       7174.503       7174.503
    7174.503       7174.503       7174.503       7174.503       7174.503

    7189.331       7189.331       7189.331       7189.331       7189.331
    7189.331       7189.331       7189.331       7189.331       7189.332

    7150.019       7150.019       7150.019       7150.019       7150.019
    7150.019       7150.019       7150.019       7150.019       7150.019

    7164.847       7164.847       7164.847       7164.847       7164.847
    7164.847       7164.847       7164.847       7164.847       7164.847

    7164.847       7164.847       7164.847       7164.847       7164.847
    7164.847       7164.847       7164.847       7164.847       7164.847

    7176.709       7176.709       7176.709       7176.709       7176.709
    7176.709       7176.709       7176.709       7176.709       7176.709

    7176.709       7176.709       7176.709       7176.709       7176.709
    7176.709       7176.709       7176.709       7176.709       7176.709

    7182.641       7182.641       7182.641       7182.641       7182.641
    7182.641       7182.641       7182.641       7182.641       7182.641

    7182.641       7182.641       7182.641       7182.641       7182.641
    7182.641       7182.641       7182.641       7182.641       7182.641

    7194.503       7194.503       7194.503       7194.503       7194.503
    7194.503       7194.503       7194.503       7194.503       7194.503

    7194.503       7194.503       7194.503       7194.503       7194.503
    7194.503       7194.503       7194.503       7194.503       7194.503

    7209.331       7209.331       7209.331       7209.331       7209.331
    7209.331       7209.331       7209.331       7209.331       7209.332

    7150.019       7150.019       7150.019       7150.019       7150.019
    7150.019       7150.019       7150.019       7150.019       7150.019

    7164.847       7164.847       7164.847       7164.847       7164.847
    7164.847       7164.847       7164.847       7164.847       7164.847

    7164.847       7164.847       7164.847       7164.847       7164.847
    7164.847       7164.847       7164.847       7164.847       7164.847

    7176.709       7176.709       7176.709       7176.709       7176.709
    7176.709       7176.709       7176.709       7176.709       7176.709

    7176.709       7176.709       7176.709       7176.709       7176.709