RUNSPEC
TITLE
   Controlling energy production and mean calorific value
--older name PENG.DATA
DIMENS
    9    9    1  /

WATER

GAS

FIELD

TABDIMS
    1    1   20   20    3   15 /

REGDIMS
    3    1    0    0    0    1 /

AQUDIMS
    0    0    0    0    3   10 /
START
   1 'SEP' 1990  /

GRID        ================================================

NOGGF
EQUALS
     'DX'     2000    /
     'DY'     1000    /
     'DZ'     60      /
     'PERMX'  300     /
     'PERMY'  300     /
     'PERMZ'  30      /
     'PORO'   0.3     /
     'TOPS'   7000      1  9  1  1  1  1   /
     'TOPS'   7020      1  9  2  2  1  1   /
     'TOPS'   7040      1  9  3  3  1  1   /
     'TOPS'   7080      1  9  4  4  1  1   /
     'TOPS'   7120      1  9  5  5  1  1   /
     'TOPS'   7160      1  9  6  6  1  1   /
     'TOPS'   7200      1  9  7  7  1  1   /
     'TOPS'   7240      1  9  8  8  1  1   /
     'TOPS'   7280      1  9  9  9  1  1   /
     'MULTX'  0         3  3  1  9  1  1   /
     'MULTX'  0         6  6  1  9  1  1   /
/

RPTGRID
     /

PROPS    ===============================================================

SWFN
  0.18  0       0
  0.618 0.263   0
  1.0   0.506   0  /

SGFN
  0.382 0       0
  0.82  0.934   0
  1.0   1.0     0  /

PVTW
14.65  1.00  3.5D-6 0.2  0 /

ROCK
4000   4.0D-6 /

DENSITY
50.0   62.9549  0.05508  /

PVDG
  14.65  178.1076      0.01429
 400       9.0906      0.01461
 600       6.0076      0.01487
 800       4.4705      0.01519
1000       3.5532      0.01541
1500       2.3403      0.01611
2000       1.7467      0.01707
2500       1.4010      0.01804
3000       1.1784      0.01905
3500       1.0254      0.02020
4000       0.9148      0.02136
5000       0.7676      0.02376 /

RPTPROPS
 /

REGIONS  ==========================================================

EQUALS
     'FIPNUM'    1      1  3  1  9  1  1   /
     'FIPNUM'    2      4  6  1  9  1  1   /
     'FIPNUM'    3      7  9  1  9  1  1   /
/

RPTREGS
    /

SOLUTION   =============================================================

-- INITIAL CONDITIONS - 4000 PSI AND GAS-WATER CONTACT AT 7170 FT
-- TILTED BLOCK EQUILIBRATION

EQUIL      1 TABLES    2 NODES IN EACH           FIELD   15:52  7 OCT 83
 7290.00 3000.00 7290.00  .00000 7290.00  .00000     0      0      -5 /

-- FETKOVICH AQUIFERS :
-- STEADY-STATE TYPE AQUIFER CONNECTING TO GROUP LEFT
-- POT          TYPE AQUIFER CONNECTING TO GROUP MID
-- FETKOVICH    TYPE AQUIFER CONNECTING TO GROUP RIGHT

AQUFETP
1  7290  3000  1.0E11  1.0E-5  1.0E2  1  /
2  7290  3000  5.0E8   1.0E-5  1.0E6  1  /
3  7290  3000  2.0E9   1.0E-5  1.0E2  1  /

AQUANCON
1  1 3  9 9  1 1  'J+'  /
2  4 6  9 9  1 1  'J+'  /
3  7 9  9 9  1 1  'J+'  /
/

-- REPORT OF INITIAL CONDITIONS
--
RPTSOL
-- Initialisation Print Output
-- 
'PRES' 'SWAT' 'FIP=2' 'EQUIL' 'AQUCT=1' /
--
SUMMARY   ==============================================================

FGPR
GGPR
'PLAT-A'  'PLAT-B'  'PLAT-C'  /
WGPR
/
FGCV
GGCV
'PLAT-A'  'PLAT-B'  'PLAT-C' 'comp'/
fepr
gepr
'PLAT-A'  'PLAT-B'  'PLAT-C' 'comp'/
WEPR
/
WMCTLl
/
RUNSUM
SCHEDULE  ==============================================================

RPTSCHED
   'PRES' 'SWAT' 'RESTART=2' 'FIP=1' 'WELLS=2' 'VFPPROD=1' 'SUMMARY=2' 'CPU=2' 
'AQUCT' 'WELSPECS' /

WELSPECS
--  WELL    GROUP    LOCATION     BHP    PREF    DRAIN  GAS    SHUT/
--  NAME    NAME       I  J      DEPTH   PHAS     RAD   INFL   STOP
   'PA1'   'PLAT-A'    2  1       1*     'G'      -1    'Y'    'SH'  /
   'PA2'   'PLAT-A'    2  3       1*     'G'      -1    'Y'    'SH'  /
   'PA3'   'PLAT-A'    2  5       1*     'G'      -1    'Y'    'SH'  /
   'PB1'   'PLAT-B'    5  1       1*     'G'      -1    'Y'    'SH'  /
   'PB2'   'PLAT-B'    5  3       1*     'G'      -1    'Y'    'SH'  /
   'PB3'   'PLAT-B'    5  5       1*     'G'      -1    'Y'    'SH'  /
   'PC1'   'PLAT-C'    8  1       1*     'G'      -1    'Y'    'SH'  /
   'PC2'   'PLAT-C'    8  3       1*     'G'      -1    'Y'    'SH'  /
   'PC3'   'PLAT-C'    8  5       1*     'G'      -1    'Y'    'SH'  /
   'P57'   'PLAT-B'    5  7       1*     'g'      -1    'y'  /
   'P75'   'PLAT-B'    7  5       1*     'g'      -1    'y'  /
   'P45'   'PLAT-B'    4  5       1*     'g'      -1    'y'  /
   'PA4'   'PLAT-A'    1  2       1*     'g'      -1    'y'  /
   'PC4'   'PLAT-C'    9  2       1*     'g'      -1    'y'  /
/

GRUPTREE
--  SON    FATHER
   'COMP'  'FIELD'  /
  'PLAT-A' 'COMP'   /
  'PLAT-B' 'COMP'   /
  'PLAT-C' 'COMP'   /
/

COMPDAT
-- WELL   -LOCATION-  OPEN/   SAT  CONN  BORE  EFF  SKIN     D
-- NAME   I  J K1-K2  SHUT    TAB  FACT  DIAM  KH   FACT   FACT
   'pa*'  2*   1  1   3*                 0.25  1*    2     1E-3  /
   'pb*'  2*   1  1   3*                 0.25  1*    2     1E-3  /
   'pc*'  2*   1  1   3*                 0.25  1*    2     1E-3  /
   'P75'  2*   1  1   3*                 0.1  /
   'P57'  2*   1  1   3*                 0.1  /
   'P45'  2*   1  1   3*                 0.1  /
/

WCONPROD
-- WELL   OPEN/   CNTL   OIL   WAT   GAS   LIQ   VOI   BHP   THP   VFP
-- NAME   SHUT    MODE   RAT   RAT   RAT   RAT   RAT               TAB
   '*'   'OPEN'  'GRUP'  2*          1*    2*          500  /
  'P75'  'SHUT'  'GRUP'  5*                            500  /
  'P57'  'SHUT'  'GRUP'  5*                            500  /
  'P45'  'SHUT'  'GRUP'  5*                            500  /
  'PA4'  'SHUT'  'GRUP'  5*                            500  /
  'PC4'  'SHUT'  'GRUP'  5*                            500  /
/

QDRILL
 'PA4' 'PC4' 'P75' 'P57' 'P45' /

WECON
-- WELL   MIN   MIN   MAX   MAX   MAX   WORK   END
-- NAME   OIL   GAS   WCT   GOR   WGR   OVER   RUN
   '*'    4*                      1.0  'WELL'  'NO'  /
/

WCALVAL
'pa1' 31000 /
'pa2' 30000 /
'pa3' 29000 /
'pb1' 26000 /
'pb2' 25500 /
'pb3' 24000 /
'pc1' 23000 /
'pc2' 22000 /
'pc3' 21000 /
'p57' 26500 /
'p75' 26000 /
'p45' 18000 /
'pa4' 33000 /
'pc4' 25000 /
/


GCONENG
 'field' 7.0e9  /
 /

GCONPROD
 'plat-b' 'grat'  2*  2.0e5  2*  'n' /
 /

GCONCAL
'plat-b' 25000 'rate' 0.8 /
/

TSTEP
 50 50 9*100 /

END
