RUNSPEC
TITLE
   GAS LIFT OPTIMISATION TEST 9 X 9 X 2 - NO NETWORK

DIMENS
    9    9    2  /

NONNC

OIL

WATER

METRIC

TABDIMS
    1    1   20    4    1    2 /

WELLDIMS
   12    2    4    4 /

VFPPDIMS
    6    3    3    1    5    2 /

START
   1 'JAN' 1983  /

NSTACK
    4 /

GRID        ================================================

NOGGF

EQUALS
     'DX'     400     /
     'DY'     300     /
     'DZ'     20      /
     'PORO'   0.3     /
     'PERMX'  1000    /
     'PERMY'  1000    /
     'PERMZ'  100     /
/

BOX

 1  9  1  9  1  1 /

TOPS

 2202  2145  2105  2080  2072  2080  2105  2145  2202
 2170  2113  2073  2049  2041  2049  2073  2113  2170
 2147  2090  2050  2026  2018  2026  2050  2090  2147
 2133  2077  2037  2013  2005  2013  2037  2077  2133
 2129  2072  2032  2008  2000  2008  2032  2072  2129
 2133  2077  2037  2013  2005  2013  2037  2077  2133
 2147  2090  2050  2026  2018  2026  2050  2090  2147
 2170  2113  2073  2049  2041  2049  2073  2113  2170
 2202  2145  2105  2080  2072  2080  2105  2145  2202  /

ENDBOX

RPTGRID
   -- Report Levels for Grid Section Data
   -- 
   'DEPTH' 
 / 

PROPS    ===============================================================

SWFN
0.22   0.0   0.48
0.3    0.07  0.27
0.4    0.15  0.21
0.5    0.24  0.17
0.6    0.33  0.14
0.8    0.65  0.07
0.9    0.83  0.03
1.0    1.0   0.0   /

SOF2
0.04   0.0
0.1    0.022
0.2    0.1
0.3    0.24
0.4    0.34
0.5    0.42
0.6    0.5
0.7    0.8125
0.78   1.0    /

PVTW
306.1  1.03 0.000041    0.3  0  /

ROCK
306.1     0.000053    /

DENSITY
  800   1022  0.9907    /

PVDO
 100      1.05     1.0
 530      1.01     1.0
   /

RSCONST
 100.0     80.0  /

RPTPROPS
 /


SOLUTION   =============================================================

EQUIL
 2070.00 200.000 2120.00  .00000 1000.00  .00000     0      0      10 /

RPTSOL
   -- 
   -- Initialisation Print Output
   -- 
'PRES' 'SWAT' 'FIP=1' /

SUMMARY   ==========================================================

FOPR

FWCT

FGOR

FGLIR

WOPR
'PA37'  'PA44'  'PB55'  'PB57'  'PC63'  'PC75'  /

WWCT
'PA37'  'PA44'  'PB55'  'PB57'  'PC63'  'PC75'  /

WGLIR
'PA37'  'PA44'  'PB55'  'PB57'  'PC63'  'PC75'  /

RUNSUM

SCHEDULE  ==========================================================

RPTSCHED
   'PRES' 'SWAT' 'FIP=1' 'WELLS=2' 'SUMMARY=2' 'CPU=2' 'WELSPECS' 'NEWTON=2' 
/

NOECHO

--PRODUCTION WELL VFP TABLE   1

VFPPROD

   1     2.00000E+03   'LIQ'    'WCT'    'GOR'   /

   5.00000E+02  1.00000E+03  2.00000E+03  3.00000E+03
   4.00000E+03  5.00000E+03
 /

   2.00000E+01  6.00000E+01  1.00000E+02
 /

   0.00000E+00  4.00000E-01  8.00000E-01
 /

   1.00000E+02
 /

   0.00000E+00  1.00000E+05  2.00000E+05  3.00000E+05
   4.00000E+05
 /

   1   1   1   1   1.28868E+02  1.08779E+02  9.44610E+01  9.39597E+01
                   9.68936E+01  1.00533E+02
                 /
   2   1   1   1   1.90045E+02  1.89281E+02  1.90061E+02  1.91245E+02
                   1.93040E+02  1.95958E+02
                 /
   3   1   1   1   2.34338E+02  2.34733E+02  2.36207E+02  2.38531E+02
                   2.41696E+02  2.45685E+02
                 /

   1   2   1   1   1.58588E+02  1.54407E+02  1.45128E+02  1.40660E+02
                   1.41203E+02  1.43810E+02
                 /
   2   2   1   1   2.12969E+02  2.12673E+02  2.13572E+02  2.15718E+02
                   2.18827E+02  2.22844E+02
                 /
   3   2   1   1   2.56051E+02  2.56424E+02  2.57815E+02  2.60022E+02
                   2.63028E+02  2.66824E+02
                 /

   1   3   1   1   1.94887E+02  1.93411E+02  1.93416E+02  1.95273E+02
                   1.98409E+02  2.01974E+02
                 /
   2   3   1   1   2.40981E+02  2.41077E+02  2.42325E+02  2.44341E+02
                   2.47198E+02  2.50817E+02
                 /
   3   3   1   1   2.82506E+02  2.82858E+02  2.84162E+02  2.86230E+02
                   2.89049E+02  2.92614E+02
                 /

   1   1   1   2   4.20706E+01  5.15885E+01  6.46040E+01  7.38319E+01
                   8.15044E+01  8.85072E+01
                 /
   2   1   1   2   1.45037E+02  1.54934E+02  1.65315E+02  1.73360E+02
                   1.79198E+02  1.85035E+02
                 /
   3   1   1   2   2.04882E+02  2.13970E+02  2.23455E+02  2.29627E+02
                   2.35100E+02  2.40668E+02
                 /

   1   2   1   2   5.33339E+01  6.77101E+01  8.92206E+01  1.02349E+02
                   1.12564E+02  1.20361E+02
                 /
   2   2   1   2   1.64875E+02  1.78265E+02  1.91816E+02  1.98459E+02
                   2.04394E+02  2.09844E+02
                 /
   3   2   1   2   2.20540E+02  2.30999E+02  2.41925E+02  2.48762E+02
                   2.54555E+02  2.60249E+02
                 /

   1   3   1   2   8.45990E+01  1.05737E+02  1.33867E+02  1.48422E+02
                   1.60280E+02  1.68426E+02
                 /
   2   3   1   2   1.84139E+02  1.98958E+02  2.14908E+02  2.24527E+02
                   2.32055E+02  2.38901E+02
                 /
   3   3   1   2   2.39592E+02  2.51626E+02  2.64266E+02  2.71924E+02
                   2.78126E+02  2.83996E+02
                 /

   1   1   1   3   3.73608E+01  4.42198E+01  5.59716E+01  6.49463E+01
                   7.36708E+01  8.17191E+01
                 /
   2   1   1   3   1.02424E+02  1.20261E+02  1.42319E+02  1.56140E+02
                   1.65182E+02  1.72896E+02
                 /
   3   1   1   3   1.69664E+02  1.90908E+02  2.08583E+02  2.18818E+02
                   2.26087E+02  2.32634E+02
                 /

   1   2   1   3   4.07806E+01  5.00082E+01  6.70350E+01  8.12063E+01
                   9.29831E+01  1.03105E+02
                 /
   2   2   1   3   1.18409E+02  1.40204E+02  1.65168E+02  1.79134E+02
                   1.89370E+02  1.97933E+02
                 /
   3   2   1   3   1.96866E+02  2.14880E+02  2.30174E+02  2.39820E+02
                   2.47579E+02  2.54730E+02
                 /

   1   3   1   3   4.51769E+01  5.78575E+01  8.37553E+01  1.09230E+02
                   1.26853E+02  1.40730E+02
                 /
   2   3   1   3   1.39223E+02  1.63060E+02  1.89239E+02  2.04224E+02
                   2.15392E+02  2.24687E+02
                 /
   3   3   1   3   2.13841E+02  2.32107E+02  2.49644E+02  2.60614E+02
                   2.69150E+02  2.76751E+02
                 /

   1   1   1   4   3.68160E+01  4.22868E+01  5.16263E+01  6.11905E+01
                   7.00201E+01  7.83689E+01
                 /
   2   1   1   4   9.58181E+01  1.10063E+02  1.30832E+02  1.44755E+02
                   1.54935E+02  1.63093E+02
                 /
   3   1   1   4   1.55342E+02  1.73018E+02  1.94023E+02  2.06385E+02
                   2.15212E+02  2.22492E+02
                 /

   1   2   1   4   3.95544E+01  4.62299E+01  5.97097E+01  7.22318E+01
                   8.35608E+01  9.38335E+01
                 /
   2   2   1   4   9.99056E+01  1.16895E+02  1.42658E+02  1.61373E+02
                   1.75024E+02  1.85382E+02
                 /
   3   2   1   4   1.67489E+02  1.87839E+02  2.14257E+02  2.27469E+02
                   2.37789E+02  2.46512E+02
                 /

   1   3   1   4   4.32693E+01  5.16485E+01  7.01314E+01  8.82737E+01
                   1.04550E+02  1.18740E+02
                 /
   2   3   1   4   1.05021E+02  1.25775E+02  1.61796E+02  1.83158E+02
                   1.97887E+02  2.10104E+02
                 /
   3   3   1   4   1.84396E+02  2.07080E+02  2.35160E+02  2.49121E+02
                   2.59630E+02  2.68709E+02
                 /

   1   1   1   5   3.76134E+01  4.22927E+01  5.06311E+01  5.97303E+01
                   6.84073E+01  7.67850E+01
                 /
   2   1   1   5   9.28432E+01  1.04404E+02  1.23274E+02  1.37223E+02
                   1.47986E+02  1.56798E+02
                 /
   3   1   1   5   1.50221E+02  1.65776E+02  1.86431E+02  1.99588E+02
                   2.09223E+02  2.17114E+02
                 /

   1   2   1   5   4.00219E+01  4.53653E+01  5.66572E+01  6.77472E+01
                   7.83133E+01  8.83034E+01
                 /
   2   2   1   5   9.62701E+01  1.10027E+02  1.32926E+02  1.50266E+02
                   1.63753E+02  1.74926E+02
                 /
   3   2   1   5   1.54392E+02  1.72603E+02  1.97654E+02  2.14164E+02
                   2.26609E+02  2.37209E+02
                 /

   1   3   1   5   4.35423E+01  4.98832E+01  6.41910E+01  7.91186E+01
                   9.35402E+01  1.06919E+02
                 /
   2   3   1   5   9.99488E+01  1.15857E+02  1.43424E+02  1.64651E+02
                   1.81564E+02  1.95497E+02
                 /
   3   3   1   5   1.61201E+02  1.81604E+02  2.13748E+02  2.33314E+02
                   2.47094E+02  2.58292E+02
                 /


ECHO

WELSPECS
'PA37'    'A'       3  7   1*  'OIL'   -1   /
'PA44'    'A'       4  4   1*  'OIL'   -1   /
'PB55'    'B'       5  5   1*  'OIL'   -1   /
'PB57'    'B'       5  7   1*  'OIL'   -1   /
'PC63'    'PL-2'    6  3   1*  'OIL'   -1   /
'PC75'    'PL-2'    7  5   1*  'OIL'   -1   /
'IA11'    'A'       1  1   1*  'WAT'   -1   /
'IA19'    'A'       1  9   1*  'WAT'   -1   /
'IC91'    'PL-2'    9  1   1*  'WAT'   -1   /
'IC99'    'PL-2'    9  9   1*  'WAT'   -1   /
/

COMPDAT
'P*'   2*   1  2    3*   0.1  /
'I*'   2*   1  2    3*   0.1  /
/

WCONPROD
'P*'  'OP'  'THP'   3*  5000  1*   60    60    1   /
/

WCONINJE
'I*'  'WAT'  'OPEN'  'GRUP'  2*   350  /
/

WEFAC
'P*'  0.8  /
/

GRUPTREE
'A'  'PL-1'  /
'B'  'PL-1'  /
/

-- The field has an oil rate target of 10,000 and
-- group PL-2 has a liquid rate limit of 3,000

GCONPROD
'FIELD'  'ORAT'  10000  /
'PL-2'   'NONE'  3*    3000  'RATE'  /
/

GCONINJE
'PL-1'   'WAT'  'VREP'   3*   0.9  /
'PL-2'   'WAT'  'VREP'   3*   0.9  /
/

-- Turn on gas lift optimisation with lift gas increments of 4E4

LIFTOPT
-- increment    minimum    optimisation     opt in 1st
--   size       gradient     interval       NUPCOL its?
      4E4         0.0          0.0  /

WLIFTOPT
-- well  optimise   max lift   weighting
-- name    lift?    gas rate    factor
   'P*'    'Y' /
/

-- Test physically-dead wells for re-opening after 49 days

WTEST
'P*'  49.0  'P' /
/

DEBUG
 1 0 34*0 3 /

TSTEP
 10 /

RPTSCHED
   'WELLS=2' 'SUMMARY=2' 'CPU=2' 'WELSPECS' 'NEWTON=2' /

TSTEP
 40  50  100 /

-- At 200 days, turn off all lift gas

WLIFTOPT
-- well  optimise   max lift   weighting
-- name    lift?    gas rate    factor
   'P*'     'N'        0.0 /
/

TSTEP
 50 /

-- At 250 days, restore gas lift optimisation

WLIFTOPT
-- well  optimise   max lift   weighting
-- name    lift?    gas rate    factor
   'P*'     'Y'        1* /
/

TSTEP
 50 /

-- At 300 days, remove field oil production limit and impose a
-- minimum economic gradient of 6E-3

GCONPROD
'FIELD'  'NONE'  /
/

LIFTOPT
-- increment    minimum    optimisation     opt in 1st
--   size       gradient     interval       NUPCOL its?
      4E4         6E-3         0.0  /

TSTEP
 50 /

-- At 350 days, treble the weighting of one well in each group

WLIFTOPT
-- well  optimise   max lift   weighting
-- name    lift?    gas rate    factor
  'PA37'    'Y'        1*         3.0     /
  'PB55'    'Y'        1*         3.0     /
  'PC75'    'Y'        1*         3.0     /
/

TSTEP
 50 /

-- At 400 days, impose a lift gas supply limit of 9E5 on group PL-1

GLIFTOPT
-- group   max lift
-- name    gas rate
  'PL-1'     9E5  /
/

RPTSCHED
  'PRES' 'SWAT' 'FIP=1' 'WELLS=2' 'SUMMARY=2' 'CPU=2' 'WELSPECS' 'NEWTON=2' 
/

TSTEP
 50 /

-- End simulation at 450 days

END
