RUNSPEC
TITLE
   GAS FIELD OPERATIONS MODEL WITH NETWORK - GUIDE RATE CONTROL

DIMENS
    9    9    3  /

WATER

GAS

FIELD

TABDIMS
    1    1   20   20    3   15 /

REGDIMS
    3    1    0    0  /

WELLDIMS
    9    3    4    3 /

VFPPDIMS
    6    3    4    2    2    3 /

AQUDIMS
    0    0    0    0    3   10 /

START
   1 'SEP' 1990  /

GRID        ================================================

NOGGF

EQUALS
     'DX'     2000    /
     'DY'     1000    /
     'DZ'     20      /
     'PERMX'  300     /
     'PERMY'  300     /
     'PERMZ'  30      /
     'PORO'   0.3     /
     'TOPS'   7000      1  9  1  1  1  1   /
     'TOPS'   7020      1  9  2  2  1  1   /
     'TOPS'   7040      1  9  3  3  1  1   /
     'TOPS'   7060      1  9  4  4  1  1   /
     'TOPS'   7080      1  9  5  5  1  1   /
     'TOPS'   7100      1  9  6  6  1  1   /
     'TOPS'   7120      1  9  7  7  1  1   /
     'TOPS'   7140      1  9  8  8  1  1   /
     'TOPS'   7160      1  9  9  9  1  1   /
     'MULTX'  0         3  3  1  9  1  3   /
     'MULTX'  0         6  6  1  9  1  3   /
/

RPTGRID
   0   /

PROPS    ===============================================================

SWFN
  0.18  0       0
  0.618 0.263   0
  1.0   0.506   0  /

SGFN
  0.382 0       0
  0.82  0.934   0
  1.0   1.0     0  /

PVTW
14.65  1.00  3.5D-6 0.2  0 /

ROCK
4000   4.0D-6 /

DENSITY
50.0   62.9549  0.05508  /

PVDG
  14.65  178.1076      0.01429
 400       9.0906      0.01461
 600       6.0076      0.01487
 800       4.4705      0.01519
1000       3.5532      0.01541
1500       2.3403      0.01611
2000       1.7467      0.01707
2500       1.4010      0.01804
3000       1.1784      0.01905
3500       1.0254      0.02020
4000       0.9148      0.02136
5000       0.7676      0.02376 /

RPTPROPS
0  /

REGIONS  ==========================================================

EQUALS
     'FIPNUM'    1      1  3  1  9  1  3   /
     'FIPNUM'    2      4  6  1  9  1  3   /
     'FIPNUM'    3      7  9  1  9  1  3   /
/

RPTREGS
   0  /

SOLUTION   =============================================================

-- INITIAL CONDITIONS - 4000 PSI AND GAS-WATER CONTACT AT 7170 FT
-- TILTED BLOCK EQUILIBRATION

EQUIL      1 TABLES    2 NODES IN EACH           FIELD   15:52  7 OCT 83
 7170.00 3000.00 7170.00  .00000 7170.00  .00000     0      0      -5 /

-- FETKOVICH AQUIFERS :
-- STEADY-STATE TYPE AQUIFER CONNECTING TO GROUP LEFT
-- POT          TYPE AQUIFER CONNECTING TO GROUP MID
-- FETKOVICH    TYPE AQUIFER CONNECTING TO GROUP RIGHT

AQUFETP
1  7170  4000  1.0E11  1.0E-5  1.0E2  1  /
2  7170  4000  5.0E8   1.0E-5  1.0E6  1  /
3  7170  4000  2.0E9   1.0E-5  1.0E2  1  /

AQUANCON
1  1 3  9 9  2 3  'J+'  /
2  4 6  9 9  2 3  'J+'  /
3  7 9  9 9  2 3  'J+'  /
/

-- REPORT OF INITIAL CONDITIONS
--
RPTSOL
-- Initialisation Print Output
-- 
'PRES' 'SWAT' 'FIP=2' 'EQUIL' 'AQUCT=1' /
--
SUMMARY   ==============================================================

FGDCQ

FGPR

FGSR

FGDC

FWGR

FGPT

GGPT
/

GGPR
/

GGSR
/

GGDC
/

GWGR
/

GPR
/

RUNSUM

RPTSMRY
 1 /

SCHEDULE  ==============================================================

RPTSCHED
   'PRES' 'SWAT' 'RESTART=2' 'FIP=1' 'WELLS=2' 'VFPPROD=1' 'SUMMARY=2' 'CPU=2' 
'AQUCT' 'WELSPECS' /


NOECHO

--PRODUCTION WELL VFP TABLE   1

VFPPROD

   1     7.00000E+03   'GAS'    'WGR'    'OGR'   /

  1.00000E+03  1.00000E+04  2.00000E+04  3.00000E+04
  4.00000E+04  5.00000E+04
/

  1.00000E+03  2.00000E+03  3.00000E+03
/

  0.00000E-01  1.00000E-01  2.00000E-01  4.00000E-01
/

  0.00000E-01  1.00000E-01
/

  0.00000E-01
/

   1   1   1   1  1.14145E+03  1.17326E+03  1.26322E+03  1.40074E+03
                  1.57183E+03  1.76647E+03
                /
   2   1   1   1  2.28993E+03  2.30580E+03  2.35185E+03  2.42629E+03
                  2.52669E+03  2.64982E+03
                /
   3   1   1   1  3.42883E+03  3.43961E+03  3.47100E+03  3.52229E+03
                  3.59259E+03  3.68090E+03
                /

   1   2   1   1  2.80990E+03  2.01480E+03  2.19099E+03  2.47349E+03
                  2.78727E+03  3.11000E+03
                /
   2   2   1   1  4.15817E+03  3.20758E+03  3.20616E+03  3.32493E+03
                  3.50180E+03  3.71553E+03
                /
   3   2   1   1  5.28819E+03  4.38956E+03  4.32925E+03  4.38150E+03
                  4.48598E+03  4.62673E+03
                /

   1   3   1   1  2.84837E+03  2.11991E+03  2.34466E+03  2.68750E+03
                  3.06845E+03  3.46434E+03
                /
   2   3   1   1  4.18357E+03  3.34045E+03  3.38188E+03  3.55349E+03
                  3.79351E+03  4.07898E+03
                /
   3   3   1   1  5.28786E+03  4.53551E+03  4.51763E+03  4.61661E+03
                  4.77817E+03  4.98607E+03
                /

   1   4   1   1  2.91972E+03  2.32187E+03  2.65097E+03  3.12110E+03
                  3.64601E+03  4.19989E+03
                /
   2   4   1   1  4.22861E+03  3.57571E+03  3.70800E+03  3.99499E+03
                  4.37399E+03  4.81817E+03
                /
   3   4   1   1  5.34383E+03  4.77941E+03  4.84743E+03  5.05105E+03
                  5.34134E+03  5.70225E+03
                /

   1   1   2   1  2.20949E+03  1.75120E+03  1.89823E+03  2.12283E+03
                  2.37214E+03  2.62851E+03
                /
   2   1   2   1  3.35518E+03  2.87150E+03  2.88765E+03  2.97691E+03
                  3.10560E+03  3.26143E+03
                /
   3   1   2   1  4.22604E+03  3.97994E+03  3.96886E+03  4.01459E+03
                  4.09088E+03  4.19052E+03
                /

   1   2   2   1  2.50540E+03  1.96312E+03  2.16227E+03  2.46026E+03
                  2.79212E+03  3.13647E+03
                /
   2   2   2   1  3.67841E+03  3.13754E+03  3.18150E+03  3.32498E+03
                  3.52454E+03  3.76273E+03
                /
   3   2   2   1  4.64892E+03  4.27771E+03  4.28445E+03  4.37090E+03
                  4.50449E+03  4.67521E+03
                /

   1   3   2   1  2.64926E+03  2.10959E+03  2.35947E+03  2.72498E+03
                  3.13225E+03  3.55917E+03
                /
   2   3   2   1  3.83940E+03  3.31963E+03  3.40079E+03  3.60004E+03
                  3.86888E+03  4.18681E+03
                /
   3   3   2   1  4.85048E+03  4.47961E+03  4.51666E+03  4.64962E+03
                  4.84451E+03  5.08932E+03
                /

   1   4   2   1  2.81343E+03  2.34631E+03  2.70334E+03  3.20332E+03
                  3.76350E+03  4.36005E+03
                /
   2   4   2   1  4.03586E+03  3.59434E+03  3.76170E+03  4.08043E+03
                  4.49629E+03  4.98449E+03
                /
   3   4   2   1  5.08222E+03  4.76946E+03  4.88119E+03  5.12051E+03
                  5.45150E+03  5.86189E+03
                /

--PIPELINE VFP TABLE - 2

VFPPROD

   2      .00000E+00   'GAS'    'WGR'    'OGR'   /

   1.00000E+03  2.00000E+04  4.00000E+04  6.00000E+04
   8.00000E+04  1.00000E+05
 /

   5.00000E+02
 /

    .00000E+00  5.00000E-02  1.00000E-01  2.00000E-01
 /

    .00000E+00
 /

    .00000E+00  5.00000E+01
 /

   1   1   1   1   5.00102E+02  5.29921E+02  6.07765E+02  7.14860E+02
                   8.36484E+02  9.63929E+02
                 /

   1   2   1   1   5.00178E+02  5.54352E+02  6.92961E+02  8.68234E+02
                   1.05173E+03  1.23331E+03
                 /

   1   3   1   1   5.00222E+02  5.67385E+02  7.24873E+02  9.21391E+02
                   1.12491E+03  1.32667E+03
                 /

   1   4   1   1   5.00313E+02  5.90198E+02  7.89245E+02  1.02690E+03
                   1.26999E+03  1.51251E+03
                 /

   1   1   1   2   1.66977E+02  2.66270E+02  4.27065E+02  5.80790E+02
                   7.37268E+02  9.05887E+02
                 /

   1   2   1   2   1.67180E+02  3.22163E+02  5.51420E+02  7.67779E+02
                   9.76199E+02  1.18710E+03
                 /

   1   3   1   2   1.67283E+02  3.38768E+02  5.87789E+02  8.23008E+02
                   1.04992E+03  1.27966E+03
                 /

   1   4   1   2   1.67491E+02  3.71554E+02  6.59151E+02  9.31867E+02
                   1.19481E+03  1.46269E+03
                 /

--FLOWLINE VFP TABLE - 3

VFPPROD

   3      .00000E+00   'GAS'    'WGR'    'OGR'   /

   1.00000E+03  2.00000E+04  4.00000E+04  6.00000E+04
   8.00000E+04  1.00000E+05
 /

   5.00000E+02  1.00000E+03  1.50000E+03
 /

    .00000E+00  5.00000E-02  1.00000E-01  2.00000E-01
 /

    .00000E+00
 /

    .00000E+00
 /

   1   1   1   1   5.00108E+02  5.34143E+02  6.22979E+02  7.42465E+02
                   8.78128E+02  1.01924E+03
                 /
   2   1   1   1   1.00005E+03  1.01429E+03  1.05495E+03  1.11803E+03
                   1.19742E+03  1.29054E+03
                 /
   3   1   1   1   1.50003E+03  1.50804E+03  1.53138E+03  1.56916E+03
                   1.62019E+03  1.68189E+03
                 /

   1   2   1   1   5.00188E+02  5.67396E+02  7.29468E+02  9.27554E+02
                   1.13247E+03  1.33531E+03
                 /
   2   2   1   1   1.00008E+03  1.02767E+03  1.10392E+03  1.22482E+03
                   1.36702E+03  1.52478E+03
                 /
   3   2   1   1   1.50005E+03  1.51599E+03  1.56156E+03  1.63380E+03
                   1.73027E+03  1.85589E+03
                 /

   1   3   1   1   5.00234E+02  5.79719E+02  7.65368E+02  9.86846E+02
                   1.21393E+03  1.43864E+03
                 /
   2   3   1   1   1.00011E+03  1.03414E+03  1.12636E+03  1.26659E+03
                   1.43304E+03  1.61559E+03
                 /
   3   3   1   1   1.50007E+03  1.52034E+03  1.57729E+03  1.66681E+03
                   1.78425E+03  1.93172E+03
                 /

   1   4   1   1   5.00326E+02  6.03813E+02  8.36040E+02  1.10198E+03
                   1.37218E+03  1.64435E+03
                 /
   2   4   1   1   1.00016E+03  1.04780E+03  1.17327E+03  1.35431E+03
                   1.56843E+03  1.80606E+03
                 /
   3   4   1   1   1.50010E+03  1.52972E+03  1.61159E+03  1.73853E+03
                   1.90346E+03  2.10615E+03
                 /

ECHO

WELSPECS
--  WELL    GROUP    LOCATION     BHP    PREF    DRAIN  GAS    SHUT/
--  NAME    NAME       I  J      DEPTH   PHAS     RAD   INFL   STOP
   'PL1'   'PLAT-A'    2  1       1*     'G'      -1    'Y'    'SH'  /
   'PL2'   'PLAT-A'    2  3       1*     'G'      -1    'Y'    'SH'  /
   'PL3'   'PLAT-A'    2  5       1*     'G'      -1    'Y'    'SH'  /
   'PM1'   'G-B1'      5  1       1*     'G'      -1    'Y'    'SH'  /
   'PM2'   'G-B1'      5  3       1*     'G'      -1    'Y'    'SH'  /
   'PM3'   'G-B1'      5  5       1*     'G'      -1    'Y'    'SH'  /
   'PR1'   'G-B2'      8  1       1*     'G'      -1    'Y'    'SH'  /
   'PR2'   'G-B2'      8  3       1*     'G'      -1    'Y'    'SH'  /
   'PR3'   'G-B2'      8  5       1*     'G'      -1    'Y'    'SH'  /
/

GRUPTREE
--  SON    FATHER
   'G-B1'  'PLAT-B'  /
   'G-B2'  'PLAT-B'  /
/

COMPDAT
-- WELL   -LOCATION-  OPEN/   SAT  CONN  BORE  EFF  SKIN     D
-- NAME   I  J K1-K2  SHUT    TAB  FACT  DIAM  KH   FACT   FACT
   '*'    2*   1  3   3*                 0.25  1*    2     1E-3  /
/

WCONPROD
-- WELL   OPEN/   CNTL   OIL   WAT   GAS   LIQ   VOI   BHP   THP   VFP
-- NAME   SHUT    MODE   RAT   RAT   RAT   RAT   RAT               TAB
   '*'    'OPEN'  'GRUP' 2*           1*   2*          500   500    1  /
/

WECON
-- WELL   MIN   MIN   MAX   MAX   MAX   WORK   END
-- NAME   OIL   GAS   WCT   GOR   WGR   OVER   RUN
   '*'    4*                      0.4   'CON'  'NO'  /
/

GCONPROD
-- GRUP   CNTL   OIL   WAT   GAS   LIQ
-- NAME   MODE   RAT   RAT   RAT   RAT
  'FIELD' 'GRAT'  2*         1.0        /
/

GRUPNET
-- GRUP      FIXED    VFP    ALQ    S-SEA
-- NAME      PRES     TAB            MAN
  'FIELD'    500   /
  'PLAT-*'    1*       2   /
  'G-*'       1*       3   /
/

GCONSUMP
-- GRUP    CONS    IMPRT
-- NAME    RATE    RATE
 'PLAT-A'  5000  /
 'PLAT-B'  5000  /
/

GASFCOMP
-- GRUP      VFP      ALQ     EXTRA
-- NAME      ON       ON      CONS
  'PLAT-*'   1*       50      5000  /
/

SWINGFAC
--  JAN  FEB  MAR  APR  MAY  JUN  JUL  AUG  SEP  OCT  NOV  DEC
    2*1.5036  3*1.0024       3*0.5012       3*1.0024       1.5036
    2*1.5036  3*1.0024       3*0.5012       3*1.0024       1.5036
/

GASBEGIN

RPTSCHED
 'WELLS=2' 'SUMMARY=2' /

GASMONTH
 'MAR'  'YES'  /

RPTSCHED
   'PRES' 'SWAT' 'RESTART=2' 'FIP=1' 'WELLS=2' 'VFPPROD=1' 'SUMMARY=2' 'CPU=2' 
'AQUCT' 'WELSPECS' /

GASEND

GASYEAR
2   150000 /

GASYEAR
2          /

END
