RUNSPEC

TITLE
ECLIPSE RUN CROSS-SECTION - VOLATILE OIL MODEL - GI ACTIVATED

DIMENS
 10 1 4 /

BLACKOIL
OIL
WATER
GAS
VAPOIL
DISGAS

GIMODEL

METRIC

TABDIMS
 1 1 20 30 1 30 /

WELLDIMS
 2 4 1 2 /

NUPCOL
 3 /

START
   1    'JAN'  1987   /

GRID

OLDTRAN

DX
40*100
/
DY
40*100
/
DZ
40*10
/
TOPS
10*3970
10*3980
10*3990
10*4000
/
PORO
40*0.15
/
PERMX
10*500
10*200
10*100
10*50
/
PERMY
10*500
10*200
10*100
10*50
/
PERMZ
10*50
10*20
10*10
10*5
/

RPTGRID
   -- Report Levels for Grid Section Data
   -- 
   'DX' 
   'DY' 
   'DZ' 
   'PERMX' 
   'PERMY' 
   'PERMZ' 
   'MULTX' 
   'MULTY' 
   'MULTZ' 
   'PORO' 
   'NTG' 
   'TOPS' 
   'PORV' 
   'DEPTH' 
   'TRANX' 
   'TRANY' 
   'TRANZ' 
 / 

PROPS

PVTW
 408.70000   1.05200     5.00E-5   0.26000    0.00E+00 /

PVTG
     11.40    0.00057098   0.134826     0.01316
              0.00038066   0.131476     0.01325
              0.00019033   0.128095     0.01334
              0.00000000   0.124683     0.01343 /


     49.20    0.00018704   0.028395     0.01534
              0.00012469   0.028254     0.01534
              0.00006235   0.028109     0.01534
              0.00000000   0.027959     0.01533 /


    107.50    0.00015314   0.012619     0.01765
              0.00010209   0.012611     0.01755
              0.00005105   0.012601     0.01745
              0.00000000   0.012587     0.01735 /


    154.00    0.00018098   0.008819     0.01994
              0.00012065   0.008825     0.01967
              0.00006033   0.008827     0.01941
              0.00000000   0.008826     0.01916 /


    207.30    0.00024415   0.006699     0.02343
              0.00016277   0.006699     0.02275
              0.00008138   0.006697     0.02211
              0.00000000   0.006693     0.02151 /


    248.00    0.00031469   0.005778     0.02685
              0.00020979   0.005763     0.02562
              0.00010490   0.005748     0.02448
              0.00000000   0.005733     0.02343 /


    275.00    0.00037429   0.005357     0.02957
              0.00024952   0.005325     0.02782
              0.00012476   0.005297     0.02620
              0.00000000   0.005270     0.02472 /


    304.30    0.00045362   0.005019     0.03306
              0.00030241   0.004965     0.03054
              0.00015121   0.004916     0.02822
              0.00000000   0.004871     0.02613 /


    330.00    0.00053982   0.004806     0.03675
              0.00035988   0.004724     0.03332
              0.00017994   0.004652     0.03017
              0.00000000   0.004588     0.02737 /


    344.09    0.00058662   0.004713     0.03890
              0.00039108   0.004615     0.03491
              0.00019554   0.004529     0.03127
              0.00000000   0.004453     0.02803 /


    358.09    0.00062914   0.004632     0.04096
              0.00041942   0.004519     0.03643
              0.00020971   0.004419     0.03228
              0.00000000   0.004331     0.02861/


    371.27    0.00067040   0.004566     0.04301
              0.00044693   0.004438     0.03792
              0.00022347   0.004325     0.03326
              0.00000000   0.004226     0.02915 /


    383.69    0.00071060   0.004514     0.04507
              0.00047373   0.004371     0.03940
              0.00023687   0.004245     0.03421
              0.00000000   0.004134     0.02964 /


    395.41    0.00075159   0.004472     0.04717
              0.00050106   0.004315     0.04090
              0.00025053   0.004175     0.03514
              0.00000000   0.004054     0.03011 /


    406.48    0.00079051   0.004439     0.04925
              0.00052701   0.004267     0.04238
              0.00026350   0.004115     0.03605
              0.00000000   0.003982     0.03054  /


    416.96    0.00082863   0.004413     0.05134
              0.00055242   0.004227     0.04385
              0.00027621   0.004062     0.03694
              0.00000000   0.003918     0.03094   /


    426.88    0.00086703   0.004393     0.05348
              0.00057802   0.004193     0.04534
              0.00028901   0.004015     0.03782
              0.00000000   0.003860     0.03131    /


    436.29    0.00090351   0.004378     0.05560
              0.00060234   0.004164     0.04681
              0.00030117   0.003974     0.03867
              0.00000000   0.003808     0.03167     /


    445.21    0.00093977   0.004366     0.05775
              0.00062652   0.004140     0.04829
              0.00031326   0.003937     0.03952
              0.00000000   0.003761     0.03200      /


    453.68    0.00097372   0.004358     0.05986
              0.00064914   0.004119     0.04974
              0.00032457   0.003904     0.04034
              0.00000000   0.003718     0.03230 /

/

PVTO
    3.02     11.40      1.095     0.71545  /
   24.84     49.20      1.179     0.57933  /
   56.57    107.50      1.284     0.44463  /
   83.57    154.00      1.367     0.36695  /
  120.00    207.30      1.476     0.29689  /
  153.30    248.00      1.575     0.25293  /
  179.05    275.00      1.652     0.22707  /
  211.49    304.30      1.749     0.20134  /
  245.23    330.00      1.850     0.18027  /
  266.64    344.09      1.915     0.16908
            445.41      1.840     0.18829
            546.74      1.785     0.2062   /
  284.74    358.09      1.966     0.16218  /
  302.84    371.27      2.017     0.15597  /
  320.95    383.69      2.068     0.15036  /
  339.05    395.41      2.119     0.14527  /
  357.15    406.48      2.170     0.14063  /
  375.25    416.96      2.220     0.13638  /
  393.35    426.88      2.271     0.13248  /
  411.45    436.29      2.322     0.12888  /
  429.55    445.21      2.373     0.12555  /
  447.65    453.68      2.423     0.12246
            555.01      2.322     0.13498
            656.33      2.246     0.14656  /
/

GINODE
    0.0
    5.0
   12.5
   23.8
   40.6
   65.9
  103.9
  160.9
  246.3
  374.4
  566.7
  855.0
 1000.0
/

BOGI
  49.2   1.0
          .986
          .979
          .974
          .969
          .966
          .963
          .960
          .958
          .955
          .952
          .948
          .946 /
 154.0   1.0
          .993
          .986
          .978
          .970
          .960
          .952
          .944
          .936
          .928
          .920
          .911
          .908  /
 248.0   1.0
          .995
          .988
          .980
          .970
          .957
          .942
          .926
          .910
          .893
          .877
          .861
          .855  /
  304.3  1.0
          .994
          .987
          .977
          .964
          .947
          .929
          .907
          .883
          .861
          .835
          .815
          .804 /
  344.09 1.0
          .992
          .983
          .971
          .956
          .936
          .912
          .886
          .857
          .824
          .799
          .771
          .763 /
 371.27  1.0
         1.037
         1.025
         1.009
         0.989
          .965
          .934
          .902
          .868
          .829
          .799
          .765
          .756 /
 395.41  1.0
         1.012
         1.018
         1.0
          .978
          .950
          .919
          .88
          .846
          .802
          .772
          .733
          .724  /
 416.96  1.0
         1.006
         1.014
         1.010
         0.984
          .947
          .915
          .869
          .835
          .786
          .755
          .712
          .703  /
/
RSGI
   49.20  1.0
          0.851
           .798
           .758
           .734
           .710
           .690
           .673
           .657
           .645
           .625
           .609
           .601  /
  154.00  1.0
           .975
           .949
           .920
           .892
           .861
           .830
           .805
           .777
           .751
           .726
           .695
           .683  /
  248.00  1.0
           .988
           .972
           .951
           .927
           .896
           .858
           .821
           .782
           .737
           .699
           .656
           .639  /
  304.30  1.0
           .988
           .973
           .953
           .926
           .892
           .853
           .806
           .756
           .707
           .652
           .605
           .582  /
  344.09  1.0
           .986
           .969
           .947
           .918
           .882
           .835
           .785
           .731
           .666
           .617
           .559
           .542  /
  371.27  1.0
          1.071
          1.050
          1.021
          0.985
           .941
           .885
           .826
           .763
           .689
           .632
           .564
           .547  /
  395.41  1.0
          1.023
          1.034
          1.004
           .966
           .918
           .864
           .797
           .738
           .659
           .605
           .534
           .517  /
  416.96  1.0
          1.010
          1.026
           .977
           .917
           .864
           .787
           .73
           .648
           .593
           .518
           .501
           .501 /
/
BGGI
  49.20   1.0
          1.014
          1.019
          1.022
          1.023
          1.024
          1.024
          1.025
          1.025
          1.024
          1.023
          1.022
          1.021 /
 154.00   1.0
          1.002
          1.006
          1.010
          1.014
          1.017
          1.020
          1.023
          1.024
          1.026
          1.026
          1.027
          1.027 /
  248.00  1.0
          1.0
          1.0
          1.002
          1.003
          1.005
          1.007
          1.009
          1.009
          1.010
          1.010
          1.010
          1.010 /
  304.30  1.0
          1.0
          1.0
          1.0
           .998
           .996
           .996
           .994
           .992
           .99
           .988
           .988
           .988 /
  344.09  1.0
          1.0
           .998
           .996
           .991
           .989
           .985
           .981
           .977
           .970
           .966
           .964
           .962   /
  371.27  1.0
           .981
           .979
           .974
           .97
           .964
           .957
           .951
           .942
           .934
           .929
           .925
           .923  /
  395.41  1.0
           .983
           .968
           .963
           .959
           .95
           .942
           .931
           .922
           .912
           .905
           .897
           .894 /
  416.96  1.0
           .987
           .97
           .955
           .946
           .936
           .925
           .912
           .901
           .888
           .880
           .869
           .867  /
/
RVGI
   49.20  1.0
          1.0
           .947
           .895
           .842
           .789
           .737
           .684
           .632
           .579
           .526
           .421
           .368  /
  154.00  1.0
          1.0
           .944
           .944
           .889
           .833
           .778
           .778
           .667
           .611
           .556
           .444
           .444  /
   248.0  1.0
          1.0
           .968
           .935
           .903
           .871
           .806
           .710
           .645
           .548
           .484
           .387
           .355 /
  304.30  1.0
           .978
           .956
           .933
           .889
           .844
           .778
           .689
           .6
           .511
           .422
           .333
           .289  /
  344.09  1.0
           .983
           .966
           .932
           .881
           .831
           .746
           .661
           .576
           .475
           .390
           .305
           .271  /
   371.27 1.0
           .837
           .814
           .779
           .733
           .686
           .616
           .547
           .477
           .384
           .326
           .244
           .221   /
  395.41  1.0
           .892
           .794
           .765
           .716
           .667
           .608
           .529
           .461
           .373
           .314
           .235
           .216  /
  416.96  1.0
           .932
           .839
           .763
           .712
           .653
           .602
           .517
           .458
           .373
           .314
           .237 /
/

DENSITY
 732.000  1000.05  1.10900 /

--SG         KRG
SGFN
  0.00      0.0000     0.0
  0.03      0.0000     0.0
  0.110     0.0246     0.0
  0.244     0.0791     0.0
  0.307     0.1212     0.0
  0.369     0.1805     0.0
--SW          KRWW       KROW
  0.459     0.3320     0.0
  0.478     0.3557     0.0
  0.491     0.3701     0.0
/

--SW          KRWW       KROW
SWFN
0.221      0.00           0.0
0.25       0.010          0.0
0.300      0.030          0.0
0.400      0.070          0.0
0.500      0.130          0.0
0.547      0.163          0.0
0.570      0.174          0.0
0.582      0.179          0.0
0.614      0.202          0.0
0.645      0.226          0.0
0.658      0.242          0.0
0.670      0.260          0.0
0.681      0.275          0.0
0.696      0.296          0.0
0.701      0.305          0.0
0.706      0.316          0.0
0.731      0.360          0.0
/

SOF3
   0.2690 0.000000 0.000000
   0.2880 0.000038 0.000000
   0.2940 0.000050 0.000380
   0.3000 0.000065 0.000740
   0.3200 0.000170 0.001400
   0.4100 0.007600 0.008200
   0.5000 0.035000 0.034000
   0.6000 0.095000 0.160000
   0.7000 0.220000 0.500000
   0.7500 0.470000 0.760000
   0.7790 1.000000 1.000000
/

STONE2

ROCK
 407.800        7.00E-5 /
--DATUM DEPTH PRESS WOC    PC AT WOC GOC
RPTPROPS
-- PROPS Reporting Options
-- 
'GINODE' 
/

SOLUTION

--DATUM DEPTH PRESS WOC    PC AT WOC GOC
EQUIL
 3970.00 406.00  4010.00 0.00000 3970.00 0.00000     1      0      1* /

RSVD       1 TABLES   20 NODES IN EACH
   3000.0  266.64
   4000.0  266.64
/


RPTSOL
   -- Initialisation Print Output
   -- 
'PRES' 'SOIL' 'SWAT' 'SGAS' 'RS' 'RV' 'FIP=1' 'EQUIL' 'RSVD' 'RVVD' /

SUMMARY

RUNSUM

ALL

BPR
 1 1 3    /
 2 1 3    /
 3 1 3    /
 4 1 3    /
 5 1 3   /
 6 1 3    /
 7 1 3    /
 8 1 3    /
 9 1 3    /
10 1 3    /
/
BOSAT
 1 1 3    /
 2 1 3    /
 3 1 3    /
 4 1 3    /
 5 1 3   /
 6 1 3    /
 7 1 3    /
 8 1 3    /
 9 1 3    /
10 1 3    /
/


SCHEDULE


WELSPECS
'GINJ    ','G       ',  1,  1,4005.00,'GAS'
    1*  ,'NO ','SHUT','NO ',1* ,'SEG',   /
'PROD    ','G       ', 10,  1,4005.00,'OIL'
  0.0000,'NO ','SHUT','NO ',1* ,'SEG',   /
/

COMPDAT
'GINJ    '   1   1   3   3 'OPEN'  1* 0.000000 0.2000
    1*    127.30    1*     /
'GINJ    '   1   1   4   4 'OPEN'  1*    1*    0.2000
    1*    127.30    1*     /
'PROD    '  10   1   1   1 'OPEN'  1*    1*    0.2000
    1*    127.30    1*     /
'PROD    '  10   1   2   2 'OPEN'  1*    1*    0.2000
    1*    127.30    1*     /
'PROD    '  10   1   3   3 'OPEN'  1*    1*    0.2000
    1*    127.30    1*     /
'PROD    '  10   1   4   4 'OPEN'  1*    1*    0.2000
    1*    127.30    1*     /
/

WECON
'PROD    ' 3.00000000     1*       1*   5000.000    1*    'NONE','NO ' /
/

WCONPROD
'PROD    ','OPEN','ORAT' 30.0000000      1*      80000.0000
     1*          1*      100.0000    1*       1*     1*    /
/

WCONINJE
'GINJ    ','GAS','OPEN','RATE' 14026.0000  /
/

RPTSCHED
   'PRES' 'SOIL' 'SWAT' 'SGAS' 'RS' 'RV' 'RESTART=2' 'FIP=1' 'WELLS=2' 'CPU=2' 
'WELSPECS' 'NEWTON=2' /

TUNING
 1.000000 60.00000 0.100000 0.150000 3.000000 0.300000 0.100000 1.250000
/
 1.00E-01    1.00E-03    1.00E-07    1.00E-04
 1.00E+01    1.00E-02    1.00E-06    1.00E-03    1.00E-03
/
  20   1  25   1   8   8
/


TSTEP
 1.000000  181.5000  182.5000  365.0000
/
END

TSTEP
 1.000000  181.5000  182.5000  365.0000  365.0000  365.0000  365.0000  365.0000
 365.0000  365.0000  365.0000  365.0000
/
END
