RUNSPEC
TITLE
  GRADIENT OPTION TEST CASE

DIMENS
   10   10    3  /

NONNC

FAULTDIM
   20  /

OIL

WATER

GAS

DISGAS

FIELD

EQLDIMS
    1  100   10    1    1 /

TABDIMS
    2    2   16   12    3   12    1    1 /

REGDIMS
    3    3    0    4   /

WELLDIMS
    4    1    1    4 /

HMDIMS
 1 1 1 /

NUPCOL
    4 /

SMRYDIMS
  3000 /

START
  19 'OCT' 1982  /

NSTACK
   24 /

FMTOUT

FMTIN

GRID    ================================================================
-------- IN THIS SECTION , THE GEOMETRY OF THE  SIMULATION GRID AND THE
-------- ROCK PERMEABILITIES AND POROSITIES ARE DEFINED.
------------------------------------------------------------------------
--  THE X AND Y DIRECTION CELL SIZES ( DX, DY ) AND THE POROSITIES ARE
--  CONSTANT THROUGHOUT THE GRID. THESE ARE SET IN THE FIRST 3 LINES
--  AFTER THE EQUALS KEYWORD. THE CELL THICKNESSES ( DZ ) AND
--  PERMEABILITES ARE THEN SET FOR EACH  LAYER. THE CELL TOP DEPTHS
--  ( TOPS ) ARE NEEDED ONLY IN THE TOP LAYER ( THOUGH THEY COULD BE.
--  SET THROUGHOUT THE GRID ). THE SPECIFIED MULTZ VALUES ACT AS
--  MULTIPLIERS ON THE TRANSMISSIBILITIES BETWEEN THE CURRENT LAYER
--  AND THE LAYER BELOW.
--     ARRAY  VALUE     ------- BOX ------

EQUALS
      'DX'    1000      /
      'DY'    1000      /
      'PORO'  0.3       /

      'DZ'    20        1  10  1  10  1  1  /
      'PERMX' 500       /
      'TOPS'  8325      /

      'DZ'    30        1  10  1  10  2  2  /
      'PERMX' 50        /
      'TOPS'  8345      /

      'DZ'    50        1  10  1  10  3  3  /
      'PERMX' 200       /
      'TOPS'  8395      /

/       EQUALS IS TERMINATED BY A NULL RECORD

-- THE Y AND Z DIRECTION PERMEABILITIES ARE COPIED FROM PERMX
--    SOURCE  DESTINATION  ------- BOX ------
COPY
      'PERMX'    'PERMY'   1  10  1  10  1  3  /
      'PERMX'    'PERMZ'   /
/

FLUXNUM
 1 1 1 1 1    2 2 2 2 2
 1 1 1 1 2    2 2 2 2 2
 1 1 1 2 2    2 2 2 2 2
 1 1 2 2 2    2 2 2 2 2
 1 2 2 2 2    2 2 2 2 3

 1 2 2 2 2    2 2 2 2 3
 2 2 2 2 2    2 2 2 3 3
 2 2 2 2 2    2 2 3 3 3
 2 2 2 2 2    2 3 3 3 3
 2 2 2 2 2    3 3 3 3 3

 1 1 1 1 1    2 2 2 2 2
 1 1 1 1 2    2 2 2 2 2
 1 1 1 2 2    2 2 2 2 2
 1 1 2 2 2    2 2 2 2 2
 1 2 2 2 2    2 2 2 2 3

 1 2 2 2 2    2 2 2 2 3
 2 2 2 2 2    2 2 2 3 3
 2 2 2 2 2    2 2 3 3 3
 2 2 2 2 2    2 3 3 3 3
 2 2 2 2 2    3 3 3 3 3

 1 1 1 1 1    2 2 2 2 2
 1 1 1 1 2    2 2 2 2 2
 1 1 1 2 2    2 2 2 2 2
 1 1 2 2 2    2 2 2 2 2
 1 2 2 2 2    2 2 2 2 3

 1 2 2 2 2    2 2 2 2 3
 2 2 2 2 2    2 2 2 3 3
 2 2 2 2 2    2 2 3 3 3
 2 2 2 2 2    2 3 3 3 3
 2 2 2 2 2    3 3 3 3 3
/

MULTIREG
 'MULTY'    2.2   3 /
 'PERMY'    2.2   3 /
/

FAULTS
 'MAJOR'  3 3   1 4    1 3  'X' /
 'MAJOR'  3 5   4 4    1 3  'Y' /
 'MAJOR'  5 5   5 10   1 3  'X' /
 'MINOR'  6 6   1 3    1 3  'X' /
 'MINOR'  6 10  3 3    1 3  'Y' /
/

MULTFLT
 'MAJOR'  0.001 /
 'MINOR'  01 /
/

OLDTRAN

-- OUTPUT OF DX, DY, DZ, PERMX, PERMY, PERMZ, MULTZ, PORO AND TOPS DATA
-- IS REQUESTED, AND OF THE CALCULATED PORE VOLUMES AND X, Y AND Z
-- TRANSMISSIBILITIES
RPTGRID
  'DX'  'DY'  'DZ'  'PERMX'  'PERMY'  'PERMZ'  'MULTZ'
  'PORO'  'TOPS'  'PORV'  'TRANX'  'TRANY'  'TRANZ'  /

PROPS    ===============================================================
-------- THE PROPS SECTION DEFINES THE REL. PERMEABILITIES, CAPILLARY
-------- PRESSURES, AND THE PVT PROPERTIES OF THE RESERVOIR FLUIDS
----------------------------------------------------------------------
-- WATER RELATIVE PERMEABILITY AND CAPILLARY PRESSURE ARE TABULATED AS
-- A FUNCTION OF WATER SATURATION.
--
--  SWAT   KRW   PCOW
SWFN
    0.12  0       0
    1.0   1.0     0  /
/

-- SIMILARLY FOR GAS
--
--  SGAS   KRG   PCOG
SGFN

    0     0       0
    0.02  0       0
    0.05  0.005   0
    0.12  0.025   0
    0.2   0.075   0
    0.25  0.125   0
    0.3   0.19    0
    0.4   0.41    0
    0.45  0.6     0
    0.5   0.72    0
    0.6   0.87    0
    0.7   0.94    0
    0.88  0.98    0
/
/

-- OIL RELATIVE PERMEABILITY IS TABULATED AGAINST OIL SATURATION
-- FOR OIL-WATER AND OIL-GAS-CONNATE WATER CASES
--
--  SOIL     KROW     KROG
SOF3

    0        0        0
    0.18     0        0
    0.28     0.0001   0.0001
    0.38     0.001    0.001
    0.43     0.01     0.01
    0.48     0.021    0.021
    0.58     0.09     0.09
    0.63     0.2      0.2
    0.68     0.35     0.35
    0.76     0.7      0.7
    0.83     0.98     0.98
    0.86     0.997    0.997
    0.879    1        1
    0.88     1        1    /
/

-- PVT PROPERTIES OF WATER
--
--    REF. PRES. REF. FVF  COMPRESSIBILITY  REF VISCOSITY  VISCOSIBILITY
PVTW
       4014.7     1.029        3.13D-6           0.31            0 /
/

-- ROCK COMPRESSIBILITY
--
--    REF. PRES   COMPRESSIBILITY
ROCK
        14.7          3.0D-6          /
/

-- SURFACE DENSITIES OF RESERVOIR FLUIDS
--
--        OIL   WATER   GAS
DENSITY
         49.1   64.79  0.06054  /
/

-- PVT PROPERTIES OF DRY GAS (NO VAPOURISED OIL)
-- WE WOULD USE PVTG TO SPECIFY THE PROPERTIES OF WET GAS
--
--   PGAS   BGAS   VISGAS
PVDG
     14.7 166.666   0.008
    264.7  12.093   0.0096
    514.7   6.274   0.0112
   1014.7   3.197   0.014
   2014.7   1.614   0.0189
   2514.7   1.294   0.0208
   3014.7   1.080   0.0228
   4014.7   0.811   0.0268
   5014.7   0.649   0.0309
   9014.7   0.386   0.047   /
/

-- PVT PROPERTIES OF LIVE OIL (WITH DISSOLVED GAS)
-- WE WOULD USE PVDO TO SPECIFY THE PROPERTIES OF DEAD OIL
--
-- FOR EACH VALUE OF RS THE SATURATION PRESSURE, FVF AND VISCOSITY
-- ARE SPECIFIED. FOR RS=1.27 AND 1.618, THE FVF AND VISCOSITY OF
-- UNDERSATURATED OIL ARE DEFINED AS A FUNCTION OF PRESSURE. DATA
-- FOR UNDERSATURATED OIL MAY BE SUPPLIED FOR ANY RS, BUT MUST BE
-- SUPPLIED FOR THE HIGHEST RS (1.618).
--
--   RS      POIL  FVFO  VISO
PVTO
    0.001    14.7 1.062  1.04    /
    0.0905  264.7 1.15   0.975   /
    0.18    514.7 1.207  0.91    /
    0.371  1014.7 1.295  0.83    /
    0.636  2014.7 1.435  0.695   /
    0.775  2514.7 1.5    0.641   /
    0.93   3014.7 1.565  0.594   /
    1.270  4014.7 1.695  0.51
           5014.7 1.671  0.549
           9014.7 1.579  0.74    /
    1.618  5014.7 1.827  0.449
           9014.7 1.726  0.605   /
    1.630  8014.7 1.828  0.449
           9014.7 1.8    0.605   /
/
/

-- OUTPUT CONTROLS FOR PROPS DATA
-- ACTIVATED FOR SOF3, SWFN, SGFN, PVTW, PVDG, DENSITY AND ROCK KEYWORDS
RPTPROPS
  'SOF2=1'  'SWFN=1'  'SGFN=1'  'PVTW=1'
  'PVTG=1'  'DENSITY' 'ROCK'  /

------------------------------------------------------------------------
REGIONS
----------------------------------------------------------------------------

EQUALS
 'PVTNUM'  2   /
 'SATNUM'  2   /
-- 'HMTRANZ' 1  /
 'HMTRANX' 1  /
-- 'HMTRNXY' 1  /
/
BOX
 1 10   1 10   2 2 /

SATNUM
 1 2 1 2 1   2 1 2 1 2
 2 1 2 1 2   1 2 1 2 1
 1 2 1 2 1   2 1 2 1 2
 2 1 2 1 2   1 2 1 2 1
 1 2 1 2 1   2 1 2 1 2
 2 1 2 1 2   1 2 1 2 1
 1 2 1 2 1   2 1 2 1 2
 2 1 2 1 2   1 2 1 2 1
 1 2 1 2 1   2 1 2 1 2
 2 1 2 1 2   1 2 1 2 1
/
ENDBOX

COPY
 'SATNUM' 'FIPXXX' /

/
EQUALS
 'FIPNUM'  1   4*          1 1  /
 'FIPNUM'  2   4*          2 2  /
 'FIPNUM'  3   4*          3 3  /
 'FIPYYY'  1   1 3  1 10   1 3  /
 'FIPYYY'  2   4 7   4*         /
 'FIPYYY'  3   7 10  4*         /
/

RPTREGS
  'PVTNUM'  'SATNUM'  'EQLNUM'  'FIPNUM'  'HM'  /

SOLUTION ===============================================================
-------- THE SOLUTION SECTION DEFINES THE INITIAL STATE OF THE SOLUTION
-------- VARIABLES (PHASE PRESSURES, SATURATIONS AND GAS-OIL RATIOS)
------------------------------------------------------------------------
-- DATA FOR INITIALISING FLUIDS TO POTENTIAL EQUILIBRIUM
--
--    DATUM  DATUM   OWC    OWC    GOC    GOC    RSVD   RVVD   SOLN
--    DEPTH  PRESS  DEPTH   PCOW  DEPTH   PCOG  TABLE  TABLE   METH
EQUIL
       8400   4800   8500    0     8200    0      1      0       0  /

-- VARIATION OF INITIAL RS WITH DEPTH
--
--    DEPTH    RS
RSVD
       8200  1.270
       8500  1.270  /

-- OUTPUT CONTROLS
-- (SWITCH ON OUTPUT OF INITIAL GRID BLOCK PRESSURES
--                      FLUID VISCOSITIES
--                      PHASE RESERVOIR DENSITIES  )
RPTSOL
  'PRES'  'FIP=3'  'VOIL'  'VWAT'  'VGAS'  'DENO'
  'DENW'  'DENG'  /

SUMMARY  ===============================================================
-------- THIS SECTION SPECIFIES DATA TO BE WRITTEN TO THE SUMMARY FILES
-------- AND WHICH MAY LATER BE USED WITH THE ECLIPSE GRAPHICS PACKAGE
------------------------------------------------------------------------

-- FIELD OIL PRODUCTION
FOPR

-- WELL GAS-OIL RATIO FOR PRODUCER
WGOR
'PRODUCER'
/

-- WELL BOTTOM-HOLE PRESSURE

WBHP
'PRODUCER'
/

-- GAS AND OIL SATURATIONS IN INJECTION AND PRODUCTION CELL
BGSAT
10 10 3
1  1  1
/

BOSAT
10 10 3
1  1  1
/

-- PRESSURE IN INJECTION AND PRODUCTION CELL
BPR
10 10 3
1  1  1
/
-- VISCOSITIES
BOVIS
10 10 3
1  1  1
/
BGVIS
10 10 3
1  1  1
/
BODEN
10 10 3
1  1  1
/
BGDEN
10 10 3
1  1  1
/
FOVIS
FWVIS
FGVIS

ROVIS
1 /
ROVISXXX
 1 2 3 /



SCHEDULE ===============================================================
-------- THE SCHEDULE SECTION DEFINES THE OPERATIONS TO BE SIMULATED
------------------------------------------------------------------------
RPTSCHED
  'PRES'    'SOIL'  'SWAT'     'SGAS'  'RS'    'FIP=3'
  'WELLS=1' 'CPU=2' 'WELSPECS' 'NEWTON=2'
  'VOIL'    'VWAT'  'VGAS'     'DENO'  'DENW'  'DENG'  /

RPTRST
  'BASIC=3'  'SFIP'  'FREQ=2'  'PRES'  'VISC'
  'DEN'  /

DRSDT
 100.0
/

-- SET INITIAL TIME STEP TO 1 DAY AND MAXIMUM TO 6 MONTHS
TUNING
/
/
 8*  200.0 /

-- WELL SPECIFICATION DATA
--
--     WELL   GROUP LOCATION  BHP   PI
--     NAME   NAME    I  J   DEPTH DEFN
WELSPECS
    'PRODUCER' 'G'   10 10    8400 'OIL'  /
-- next one new
    'PRODUCE2' 'G'   10 1     8400 'OIL'  /
    'INJECTOR' 'G'   1  1     8335 'GAS'  /
-- next one is new
    'INJECT2' 'G'    1  10   8335 'GAS'  /
/

-- COMPLETION SPECIFICATION DATA
--
--     WELL     -LOCATION- OPEN/ SAT CONN  WELL
--     NAME     I  J K1 K2 SHUT  TAB FACT  DIAM
COMPDAT
    'PRODUCER'  10 10 3  3 'OPEN' 0   -1   0.5  /
    'PRODUCE2'  10 1  3  3 'OPEN' 0   -1   0.5  /
    'INJECTOR'   1  1 1  1 'OPEN' 1   -1   0.5  /
    'INJECT2'   1  10 1  1 'OPEN' 1   -1   0.5  /
  /

WCONHIST
     'PRODUCER' 'OPEN' 'ORAT' 20000 /
     'PRODUCE2' 'OPEN' 'ORAT' 20000 /
  /

WELTARG
     'PRODUCER' 'BHP' 1000 /
     'PRODUCE2' 'BHP' 1000 /
  /

-- INJECTION WELL CONTROLS
--
--      WELL     INJ   OPEN/  CNTL    FLOW
--      NAME    TYPE   SHUT   MODE    RATE      BHP
WCONINJE
     'INJECTOR' 'GAS' 'OPEN' 'RATE'  100000 1* 10000  /
     'INJECT2' 'GAS' 'OPEN' 'RATE'  100000 1* 10000  /
  /

TSTEP
  6*4 1
  /
END     ================================================================
