RUNSPEC
TITLE
   HORIZONTAL WELL WITH VERY HIGH FRICTION  -  1.25 INCH DIAMETER

DIMENS
    8    9    7  /

NONNC

OIL

WATER

GAS

DISGAS

FIELD

EQLDIMS
    1  100    3    1   20 /

TABDIMS
    1    1   15   15    1   15 /

WELLDIMS
    1    6    1    1 /

FRICTION
    1 /

VFPPDIMS
    6    3    3    3    1    1 /

START
   1 'JAN' 1989  /

GRID        =========================================================

NOGGF

DXV
  100  100  100  200  200  100  100  100  /

DYV
  500  150  50  15  5  15  50  150  500  /

DZ
  72*10  72*10  72*5  72*10  72*10  72*10  72*50  /

PERMX
  504*100 /

PERMY
  504*100 /

PERMZ
  504*10 /

PORO
  504*0.3 /

EQUALS
'TOPS'  6877.5  1 8  1 9  1 1  /
/

RPTGRID
  -- Report Levels for Grid Section Data
  -- 
   / 


PROPS       ==========================================================

SWFN

  0.22  0     0
  0.3   0.07  0
  0.4   0.15  0
  0.5   0.24  0
  0.6   0.33  0
  0.8   0.65  0
  0.9   0.83  0
  1     1     0      /

SGFN

  0     0       0
  0.04  0       0
  0.1   0.022   0
  0.2   0.1     0
  0.3   0.24    0
  0.4   0.34    0
  0.5   0.42    0
  0.6   0.5     0
  0.7   0.8125  0
  0.78  1       0      /

SOF3

0        0         0
0.2      0         0
0.38     0.00432   0
0.4      0.0048    0.004
0.48     0.05288   0.02
0.5      0.0649    0.036
0.58     0.11298   0.1
0.6      0.125     0.146
0.68     0.345     0.33
0.7      0.4       0.42
0.74     0.7       0.6
0.78     1         1          /

PVTW
3000  1.00341  3.0D-6  0.96  0  /

ROCK
3000    4.0D-6   /

DENSITY
45   63.02   0.0702  /

PVDG
 400  5.9   0.013
 800  2.95  0.0135
1200  1.96  0.014
1600  1.47  0.0145
2000  1.18  0.015
2400  0.98  0.0155
2800  0.84  0.016
3200  0.74  0.0165
3600  0.65  0.017
4000  0.59  0.0175
4400  0.54  0.018
4800  0.49  0.0185
5200  0.45  0.019
5600  0.42  0.0195 /

PVTO

0.165  400   1.012    1.17  /
0.335  800   1.0255   1.14  /
0.500 1200   1.038    1.11  /
0.665 1600   1.051    1.08  /
0.828 2000   1.063    1.06  /
0.985 2400   1.075    1.03  /
1.130 2800   1.087    1.00  /
1.270 3200   1.0985   0.98  /
1.390 3600   1.11     0.95  /
1.500 4000   1.12     0.94  /
1.600 4400   1.13     0.92  /
1.676 4800   1.14     0.91  /
1.750 5200   1.148    0.9   /
1.810 5600   1.155    0.89
      6000   1.132    0.89  /
  /

RPTPROPS
   -- 
   -- PROPS Reporting Options
   -- 
/

SOLUTION    ============================================================

EQUIL
 6877.5  3700    6932.5  0.0     6877.5   .00000     0      0       0 /

RPTSOL
  -- Initialisation Print Output
  -- 
  'PRES' 'SWAT' /
 

SUMMARY      ===========================================================

FOPR

FWCT

FGOR

WTHP
'HORIZ' /

WBHP
'HORIZ' /

CPR
'HORIZ'   2 5 3 /
'HORIZ'   3 5 3 /
'HORIZ'   4 5 3 /
'HORIZ'   5 5 3 /
'HORIZ'   6 5 3 /
'HORIZ'   7 5 3 /
/

COFR
'HORIZ'   2 5 3 /
'HORIZ'   3 5 3 /
'HORIZ'   4 5 3 /
'HORIZ'   5 5 3 /
'HORIZ'   6 5 3 /
'HORIZ'   7 5 3 /
/

CWCT
'HORIZ'   2 5 3 /
'HORIZ'   3 5 3 /
'HORIZ'   4 5 3 /
'HORIZ'   5 5 3 /
'HORIZ'   6 5 3 /
'HORIZ'   7 5 3 /
/

CGOR
'HORIZ'   2 5 3 /
'HORIZ'   3 5 3 /
'HORIZ'   4 5 3 /
'HORIZ'   5 5 3 /
'HORIZ'   6 5 3 /
'HORIZ'   7 5 3 /
/

RUNSUM

SCHEDULE     ===========================================================

DRSDT
   1.0E20  /

RPTSCHED
  'PRES' 'SWAT' 'SGAS' 'RESTART=1' 'WELLS=2' 'VFPPROD=1' 'SUMMARY=2' 'CPU=2' 
'WELSPECS' 'NEWTON=2' /

NOECHO

--VFP TABLE FOR PRODUCERS

VFPPROD

   1     6.90000E+03   'LIQ'    'WCT'    'GOR'   /

  1.00000E+00  3.00000E+02  7.00000E+02  1.00000E+03
  2.00000E+03  3.00000E+03
/

  2.00000E+02  5.00000E+02  1.00000E+03
/

  0.00000E-01  4.00000E-01  8.00000E-01
/

  1.00000E+00  2.00000E+00  4.00000E+00
/

  0.00000E-01
/

   1   1   1   1  1.97665E+03  1.45402E+03  1.38501E+03  1.42278E+03
                  1.66973E+03  1.93707E+03
                /
   2   1   1   1  2.24099E+03  2.05779E+03  2.01572E+03  2.01702E+03
                  2.09791E+03  2.24112E+03
                /
   3   1   1   1  2.71296E+03  2.70543E+03  2.71202E+03  2.72205E+03
                  2.78058E+03  2.87534E+03
                /

   1   2   1   1  2.34744E+03  1.96376E+03  1.87312E+03  1.87513E+03
                  2.01625E+03  2.22207E+03
                /
   2   2   1   1  2.61789E+03  2.49218E+03  2.45766E+03  2.45580E+03
                  2.50990E+03  2.61704E+03
                /
   3   2   1   1  3.09452E+03  3.09031E+03  3.09675E+03  3.10590E+03
                  3.15869E+03  3.24353E+03
                /

   1   3   1   1  2.85383E+03  2.68972E+03  2.63508E+03  2.62557E+03
                  2.66816E+03  2.76969E+03
                /
   2   3   1   1  3.14222E+03  3.09270E+03  3.08135E+03  3.08319E+03
                  3.12396E+03  3.20091E+03
                /
   3   3   1   1  3.63367E+03  3.63385E+03  3.64051E+03  3.64891E+03
                  3.69555E+03  3.76937E+03
                /

   1   1   2   1  1.90890E+03  1.04433E+03  1.10008E+03  1.21192E+03
                  1.62487E+03  2.02072E+03
                /
   2   1   2   1  2.13824E+03  1.61028E+03  1.55211E+03  1.58383E+03
                  1.82800E+03  2.14622E+03
                /
   3   1   2   1  2.52745E+03  2.35955E+03  2.33710E+03  2.34838E+03
                  2.46099E+03  2.65293E+03
                /

   1   2   2   1  2.24260E+03  1.46765E+03  1.39647E+03  1.45368E+03
                  1.77391E+03  2.11534E+03
                /
   2   2   2   1  2.47082E+03  2.06445E+03  1.97173E+03  1.97104E+03
                  2.10781E+03  2.33538E+03
                /
   3   2   2   1  2.87381E+03  2.74743E+03  2.72170E+03  2.72597E+03
                  2.80072E+03  2.93808E+03
                /

   1   3   2   1  2.75758E+03  2.35550E+03  2.23447E+03  2.21636E+03
                  2.30525E+03  2.48655E+03
                /
   2   3   2   1  3.02306E+03  2.83400E+03  2.77314E+03  2.76180E+03
                  2.80338E+03  2.90980E+03
                /
   3   3   2   1  3.47674E+03  3.42036E+03  3.40878E+03  3.41185E+03
                  3.45907E+03  3.54635E+03
                /

   1   1   3   1  1.87705E+03  9.24148E+02  1.15718E+03  1.34362E+03
                  1.91617E+03  2.45282E+03
                /
   2   1   3   1  2.11721E+03  1.31825E+03  1.38451E+03  1.50458E+03
                  1.99022E+03  2.50212E+03
                /
   3   1   3   1  2.50554E+03  2.06647E+03  2.05247E+03  2.09545E+03
                  2.37340E+03  2.77161E+03
                /

   1   2   3   1  2.22879E+03  1.13200E+03  1.23499E+03  1.37714E+03
                  1.86632E+03  2.32639E+03
                /
   2   2   3   1  2.45810E+03  1.65747E+03  1.60840E+03  1.66580E+03
                  2.00659E+03  2.40933E+03
                /
   3   2   3   1  2.83426E+03  2.42600E+03  2.36776E+03  2.37925E+03
                  2.53977E+03  2.80562E+03
                /

   1   3   3   1  2.73936E+03  1.92863E+03  1.77346E+03  1.78572E+03
                  2.02278E+03  2.33207E+03
                /
   2   3   3   1  2.98969E+03  2.50982E+03  2.37383E+03  2.35251E+03
                  2.43782E+03  2.62816E+03
                /
   3   3   3   1  3.40034E+03  3.17323E+03  3.10756E+03  3.09739E+03
                  3.14633E+03  3.26531E+03
                /

ECHO

WELSPECS
'HORIZ'  'G'   7  5  6900  'OIL'  -1.0 /
/

COMPDAT
'HORIZ'  2  5  3  3  'OPEN'  2*  0.5  3*  'X'  /
'HORIZ'  3  5  3  3  'OPEN'  2*  0.5  3*  'X'  /
'HORIZ'  4  5  3  3  'OPEN'  2*  0.5  3*  'X'  /
'HORIZ'  5  5  3  3  'OPEN'  2*  0.5  3*  'X'  /
'HORIZ'  6  5  3  3  'OPEN'  2*  0.5  3*  'X'  /
'HORIZ'  7  5  3  3  'OPEN'  2*  0.5  3*  'X'  /
/

WFRICTN
'HORIZ'  0.104  0.001  /
7 5 3  2*  'I'  2  /
/

WCONPROD
'HORIZ'  'OPEN'  'THP'   1*    2*  1*    1*     400  500  1  /
/

TSTEP
 1   9 /

END
