--
-- 3 PHASE HYSTERESIS TEST
--
RUNSPEC
TITLE
 THIS LINE IS A RUN TITLE

DIMENS
    5    5    1  /

OIL

WATER

GAS

FIELD

SATOPTS
                                     'HYSTER'   /

TABDIMS
    2    1   20   20    1   20 /

WELLDIMS
    2    1    1    2 /

START
   1 'JAN' 1983  /

GRID      ==============================================================

DEBUG
4*0 1 /

DXV
   5*75.0 /

DYV
   5*75.0 /

DZ
  25*30.0 /

TOPS
  25*4000.0 /

PORO
  25*0.2 /

PERMX
  25*50.0 /

PERMY
  25*50.0 /

PROPS     ==============================================================

EHYSTR
0.1  0  1.0  /

SWFN
    .25    .0    4.0
    .7    1.0    0.0
/
    .25    .0    4.0
    .7    1.0    0.0
/

SGFN
    .0     .0    0.0
    .7    1.0    4.0
/
    .0     .0     .0
    .5    1.0    4.0
/

SOF3
    .3     .0   .0
    .75   1.0  1.0
/
    .3     .0   .0
    .75   1.0  1.0
/

PVDG
100.0    1.0  1.0
10000.0  0.9  1.0    /

PVDO
100.0    1.0     1.0
10000.0  0.9     1.0
/

PVTW
   .0  1.0  3.03E-06  .5  0.0 /

ROCK
 4000.0         .30E-05 /

DENSITY
 52.0000  64.0000   .04400 /

RPTPROPS
     /

REGIONS    =============================================================

SATNUM
 25*1 /

IMBNUM
 25*2 /

SOLUTION   =============================================================

DEBUG
4*0  1 /

EQUIL
4000  4000  6000  0  2000 /

RPTSOL
-- Initialisation Print Output
-- 
'PRES' 'SGAS' /

SCHEDULE   ===========================================================

RPTSCHED
'PRES' 'SGAS' 'CPU=2' /

WELSPECS
'I'  'G'   1  1  4000  'GAS'  /
'P'  'G'   5  5  4000  'OIL'  /
/

COMPDAT
'I       '   1   1   1   1 'OPEN'   0  .0   1.0 /
'P       '   5   5   1   1 'OPEN'   0  .0   1.0 /
/

WCONPROD
'P' 'OPEN' 'BHP' 5* 3990.0 /
/

---------------------------------------------------------------------

WCONINJE
'I' 'GAS' 'OPEN' 'RATE' 5000.0 /
/

DEBUG
4*0 1 /

TSTEP
10 /

DEBUG
20*0 /

TSTEP
 2990
/

------------------------------------------------------------------------

WCONINJE
'I' 'OIL' 'OPEN' 'RATE' 100.0 /
/

DEBUG
4*0 1 10*0 2 /

TSTEP
10
/

DEBUG
20*0 /

TSTEP
 2980
/

DEBUG
4*0 1 10*0 2 /

TSTEP
10
/

END
