-- =====================================================================
-- 3D 3P TEST FOR LOCAL GRID REFINEMENT
-- =====================================================================
RUNSPEC
TITLE
   LGR TEST CASE - 5 LOCAL GRIDS

DIMENS
    4    4    4  /

OIL

WATER

GAS

DISGAS

FIELD

EQLDIMS
    1  100   10    1   20 /

TABDIMS
    1    1   16   12    1   12 /

WELLDIMS
   14    8    2   14 /

LGR
       5         192           0    0    0   10  'NOINTERP' /

NUPCOL
    4 /

START
  19 'OCT' 1982  /

NSTACK
   24 /

GRID    ================================================================

INIT

MESSAGES
 11* 5 /

NEWTRAN

PORO
16*.21
16*.22
16*.23
16*.24
/

EQUALS
      'DX'    300       /
      'DY'    300       /
      'DZ'    30        /
      'PERMX' 500       /
      'PERMY' 500       /
      'PERMZ' 50        /
/

TOPS
 16*8000 /

-- OUTPUT OF GRID DATA IN BOTH GLOBAL AND LOCAL SYSTEMS

RPTGRID
  -- Report Levels for Grid Section Data
  -- 
  'DX' 
  'DY' 
  'DZ' 
  'PERMX' 
  'PERMY' 
  'PERMZ' 
  'MULTX' 
  'MULTY' 
  'MULTZ' 
  'PORO' 
  'NTG' 
  'TOPS' 
  'PORV' 
  'DEPTH' 
  'TRANX' 
  'TRANY' 
  'TRANZ' 
   / 

RPTGRIDL
  -- Report Levels for Grid Section Data
  -- 
  'DX' 
  'DY' 
  'DZ' 
  'PERMX' 
  'PERMY' 
  'PERMZ' 
  'MULTX' 
  'MULTY' 
  'MULTZ' 
  'PORO' 
  'NTG' 
  'TOPS' 
  'PORV' 
  'DEPTH' 
  'TRANX' 
  'TRANY' 
  'TRANZ' 
   / 


CARFIN
-- NAME -- I1 I2  J1 J2 K1 K2 NX NY NZ NWMAXZ--
 'CARF23'  2  3   2  3  2  3  4  4  4   9 /

EQUALS
      'DX'    150       /
      'DY'    150       /
      'DZ'    15.0      /
      'PERMX' 50        /
      'PERMY' 50        /
      'PERMZ' 5         /
      'PORO'  0.22         1 4  1 4  1 2  /
      'PORO'  0.23         1 4  1 4  3 4  /
/
ACTNUM
1 1 1 1
1 1 1 1
1 1 1 1
1 1 1 1

1 1 1 1
1 1 1 1
1 1 1 1
1 1 1 1

1 1 1 1
1 1 1 1
1 1 1 1
1 1 1 1

1 1 1 1
1 1 1 1
1 1 1 1
1 1 1 1

 /

RADFIN
-- NAME       --I  J K1 K2 NR NT NZ--
'RADF1123'      1  1  2  3  6  4  8   /

INRAD
   0.2 /

COORDSYS
  6 7 'COMP' /

DZ
 24*7.5
 24*7.5
 24*7.5
 24*7.5
 24*7.5
 24*7.5
 24*7.5
 24*7.5 /

RADFIN
-- NAME          I  J K1 K2 NR NT NZ--
 'RADF1433'      1  4  3  3  6  4  4   /

INRAD
   0.2 /

COORDSYS
  1 4 'COMP' /

DR
 1 5 10 20 40 60
 1 5 10 20 40 60
 1 5 10 20 40 60
 1 5 10 20 40 60
 1 5 10 20 40 60
 1 5 10 20 40 60
 1 5 10 20 40 60
 1 5 10 20 40 60
 1 5 10 20 40 60
 1 5 10 20 40 60
 1 5 10 20 40 60
 1 5 10 20 40 60
 1 5 10 20 40 60
 1 5 10 20 40 60
 1 5 10 20 40 60
 1 5 10 20 40 60
 /

DZ
 96*7.5 /

RADFIN
-- NAME     --I  J K1 K2 NR NT NZ--
  'RADF4433'  4  4  3  3  6  1  4   /

INRAD
   0.2 /

RADFIN
-- NAME         I  J K1 K2 NR NT NZ--
  'RADF4133'    4  1  3  3  6  1  4   /

INRAD
   0.2 /

ENDFIN

PROPS    ===============================================================
-------- THE PROPS SECTION DEFINES THE REL. PERMEABILITIES, CAPILLARY
-------- PRESSURES, AND THE PVT PROPERTIES OF THE RESERVOIR FLUIDS
----------------------------------------------------------------------
-- WATER RELATIVE PERMEABILITY AND CAPILLARY PRESSURE ARE TABULATED AS
-- A FUNCTION OF WATER SATURATION.
--
--  SWAT   KRW   PCOW
SWFN
    0.12  0       0
    1.0   0.00001 0  /

-- SIMILARLY FOR GAS
--
--  SGAS   KRG   PCOG
SGFN
    0     0       0
    0.02  0       0
    0.05  0.005   0
    0.12  0.025   0
    0.2   0.075   0
    0.25  0.125   0
    0.3   0.19    0
    0.4   0.41    0
    0.45  0.6     0
    0.5   0.72    0
    0.6   0.87    0
    0.7   0.94    0
    0.88  0.98    0
/

-- OIL RELATIVE PERMEABILITY IS TABULATED AGAINST OIL SATURATION
-- FOR OIL-WATER AND OIL-GAS-CONNATE WATER CASES
--
--  SOIL     KROW     KROG
SOF3
    0        0        0
    0.18     0        0
    0.28     0.0001   0.0001
    0.38     0.001    0.001
    0.43     0.01     0.01
    0.48     0.021    0.021
    0.58     0.09     0.09
    0.63     0.2      0.2
    0.68     0.35     0.35
    0.76     0.7      0.7
    0.83     0.98     0.98
    0.86     0.997    0.997
    0.879    1        1
    0.88     1        1    /

-- PVT PROPERTIES OF WATER
--
--    REF. PRES. REF. FVF  COMPRESSIBILITY  REF VISCOSITY  VISCOSIBILITY
PVTW
       4014.7     1.029        3.13D-6           0.31            0 /

-- ROCK COMPRESSIBILITY
--
--    REF. PRES   COMPRESSIBILITY
ROCK
        14.7          0.0             /

-- SURFACE DENSITIES OF RESERVOIR FLUIDS
--
--        OIL   WATER   GAS
DENSITY
         49.1   64.79  0.06054  /

-- PVT PROPERTIES OF DRY GAS (NO VAPOURISED OIL)
-- WE WOULD USE PVTG TO SPECIFY THE PROPERTIES OF WET GAS
--
--   PGAS   BGAS   VISGAS
PVDG
     14.7 166.666   0.008
    264.7  12.093   0.0096
    514.7   6.274   0.0112
   1014.7   3.197   0.014
   2014.7   1.614   0.0189
   2514.7   1.294   0.0208
   3014.7   1.080   0.0228
   4014.7   0.811   0.0268
   5014.7   0.649   0.0309
   9014.7   0.386   0.047   /

-- PVT PROPERTIES OF LIVE OIL (WITH DISSOLVED GAS)
-- WE WOULD USE PVDO TO SPECIFY THE PROPERTIES OF DEAD OIL
--
-- FOR EACH VALUE OF RS THE SATURATION PRESSURE, FVF AND VISCOSITY
-- ARE SPECIFIED. FOR RS=1.27 AND 1.618, THE FVF AND VISCOSITY OF
-- UNDERSATURATED OIL ARE DEFINED AS A FUNCTION OF PRESSURE. DATA
-- FOR UNDERSATURATED OIL MAY BE SUPPLIED FOR ANY RS, BUT MUST BE
-- SUPPLIED FOR THE HIGHEST RS (1.618).
--
--   RS      POIL  FVFO  VISO
PVTO
    0.001    14.7 1.062  1.04    /
    0.0905  264.7 1.15   0.975   /
    0.18    514.7 1.207  0.91    /
    0.371  1014.7 1.295  0.83    /
    0.636  2014.7 1.435  0.695   /
    0.775  2514.7 1.5    0.641   /
    0.93   3014.7 1.565  0.594   /
    1.270  4014.7 1.695  0.51
           5014.7 1.671  0.549
           9014.7 1.579  0.74    /
    1.618  5014.7 1.827  0.449
           9014.7 1.726  0.449   /
    1.8    9000.0 1.83   0.305
           9100.0 1.82   0.305   /
/

-- OUTPUT CONTROLS FOR PROPS DATA
-- ACTIVATED FOR SOF3, SWFN, SGFN, PVTW, PVDG, DENSITY AND ROCK KEYWORDS
RPTPROPS
-- PROPS Reporting Options
-- 
'PVTW' 'PVTG' 'PVDG' 'DENSITY' 'GRAVITY' 'SDENSITY' 'ROCK' 'ROCKTAB' 
/

SOLUTION ===============================================================
-------- THE SOLUTION SECTION DEFINES THE INITIAL STATE OF THE SOLUTION
-------- VARIABLES (PHASE PRESSURES, SATURATIONS AND GAS-OIL RATIOS)
------------------------------------------------------------------------
-- DATA FOR INITIALISING FLUIDS TO POTENTIAL EQUILIBRIUM
--
--    DATUM  DATUM   OWC    OWC    GOC    GOC    RSVD   RVVD   SOLN
--    DEPTH  PRESS  DEPTH   PCOW  DEPTH   PCOG  TABLE  TABLE   METH
EQUIL
       8400   4800   8090    0     8030    0      1      0       0  /

-- VARIATION OF INITIAL RS WITH DEPTH
--
--    DEPTH    RS
RSVD
       8200  1.270
       8500  1.270  /

-- OUTPUT CONTROLS (SWITCH ON OUTPUT OF INITIAL GRID BLOCK PRESSURES)
RPTSOL
   -- Initialisation Print Output
   -- 
'PRES' 'SWAT' 'SGAS' 'RESTART=2' /



SCHEDULE ===============================================================
-------- THE SCHEDULE SECTION DEFINES THE OPERATIONS TO BE SIMULATED
------------------------------------------------------------------------
-- CONTROLS ON OUTPUT AT EACH REPORT TIME
RPTSCHED                                         FIELD   10:29 13 JUN 85
   'PRES' 'SWAT' 'SGAS' 'RESTART=2' 'FIP=2' 'WELLS=5' 'SUMMARY=1' 'CPU=2' 
'WELSPECS' 'NEWTON=2' /

-- SET 'NO RESOLUTION' OPTION
DRSDT
      0  /

--To run all the local grids in-place
--LGRLOCK
-- '*' /
--/

-- LOCAL WELL SPECIFICATION DATA
--
--     WELL   GROUP GRID      LOCATION  BHP   PI
--     NAME   NAME  NAME        I  J   DEPTH DEFN
WELSPECL
    'PROD1   ' 'G' 'RADF1123'   1  1    8060 'OIL'  /
    'PROD2   ' 'G' 'RADF1433'   1  4    8060 'OIL'  /
    'PR2     ' 'G' 'CARF23  '   2  2    8060 'OIL'  /
    'PR4     ' 'G' 'CARF23  '   3  2    8060 'OIL'  /
    'PR3     ' 'G' 'CARF23  '   2  3    8060 'OIL'  /
    'INJECTOR' 'W' 'CARF23  '   3  3    8060 'GAS'  /
    'PROD3   ' 'G' 'RADF4133'   4  1    8060 'OIL'  /
    'PROD4   ' 'G' 'RADF4433'   1  1    8060 'OIL'  /
/

-- LOCAL COMPLEION SPECIFICATION DATA
--
--     WELL     GRID       -LOCATION- OPEN/ SAT CONN WELL
--     NAME     NAME       I  J K1 K2 SHUT  TAB FACT DIAM
COMPDATL
    'PROD1   ' 'RADF1123'  1  1  6 7 'OPEN' 0   -1   0.2  /
    'PROD1   ' 'RADF1123'  1  2  6 7 'OPEN' 0   -1   0.2  /
    'PROD1   ' 'RADF1123'  1  3  6 7 'OPEN' 0   -1   0.2  /
    'PROD1   ' 'RADF1123'  1  4  6 7 'OPEN' 0   -1   0.2  /
    'PROD2   ' 'RADF1433'  1  1  4 4 'OPEN' 0   -1   0.2  /
    'PR2     ' 'CARF23  '  1  1  4 4 'OPEN' 0   -1   0.2  /
    'PR3     ' 'CARF23  '  3  2  4 4 'OPEN' 0   -1   0.2  /
    'PR4     ' 'CARF23  '  2  3  4 4 'OPEN' 0   -1   0.2  /
    'PROD3   ' 'RADF4133'  1  1  3 4 'OPEN' 0   -1   0.2  /
    'PROD4   ' 'RADF4433'  1  1  3 4 'OPEN' 0   -1   0.2  /
    'INJECTOR' 'CARF23  '  3  3  1 1 'OPEN' 0   -1   0.2  /
  /

-- PRODUCTION WELL CONTROLS
--
--      WELL     OPEN/  CNTL   OIL  WATER   GAS  LIQU   RES   BHP
--      NAME     SHUT   MODE  RATE   RATE  RATE  RATE  RATE
WCONPROD
     'PR*     ' 'OPEN' 'ORAT'  200   4*                      4000 /
  /

-- INJECTION WELL CONTROLS
--
--      WELL     INJ   OPEN/  CNTL    FLOW
--      NAME    TYPE   SHUT   MODE    RATE
WCONINJE
     'INJECTOR' 'GAS' 'OPEN' 'RATE'   200 /
  /

TSTEP
 5*10  /

LGROFF
 'CARF23'  /
LGROFF
 'RADF1123' /
LGROFF
 'RADF1433' /

TSTEP
 5*10  /

END     ================================================================



