DEBUG
   0 0 0 0 0   0 0 0 0 0 /

RUNSPEC
TITLE
   'LITTLE VERSION OF FORTIES MODEL' I.E. USES SIMILAR OPTIONS

DIMENS
    4    2    2  /

OIL

WATER

FIELD

SATOPTS
'DIRECT'   'IRREVERS'                           /

EQLDIMS
    2  100    1    1   20 /

ENDSCALE
'DIRECT'    'IRREVERS'         1   20  /

TABDIMS
    2    2   30   10    2    1 /

REGDIMS
    2    1    0    0  /

WELLDIMS
    4    2    2    4 /

VFPPDIMS
   20    5   10    2    3    3 /

VFPIDIMS
   20    5    5 /

START
   1 'AUG' 1975  /

--
--      <----------- PRINT ------------>  <------------ STOP -----------
--      mess  comm  warn  prob  err  bug  mess  comm  warn  prob  err  b
MESSAGES
        2*           1000  5*                         100000   2*  /
--

GRID     ===============================================================

EQUALS
   DX       1000 /
   DY       1000 /
   DZ       100  /
   PORO     0.3 /
   PERMX    500 /
   PERMY    500 /
   PERMZ    400 /
   TOPS     5000  1 4 1 2 1 1 /
/

NNC
 2 2 1  3 2 2  1000 /
/

NOGGF

RPTGRID
-- Report Levels for Grid Section Data
-- 
'NNC' 
'ALLNNC' 
 / 

PROPS    ===============================================================
--
RPTPROPS
         -- PROPS Reporting Options
	 -- 
	 'MLANG' 'MLANGSLV' 
/
--
--        OIL      WATER      GAS
--     (LBS/FT3) (LBS/FT3) (LBS/FT3)
--
DENSITY
         52.500    66.400   0.07500  /
         52.596    66.486   0.07773  /
--
--    OIL PHASE PRES.   OIL FVF   OIL VISCOSITY
--        (PSIA)        (RB/STB)      (CP)
--
PVDO
           1000          1.259       0.6000
           1200          1.241       0.6300
           1400          1.239       0.6500
           3230          1.217       0.7600
           6000          1.186       0.9300
          10000          1.143       1.1700   /

           1000          1.259       0.6000
           1200          1.241       0.6300
           1400          1.239       0.6500
           3230          1.217       0.7600
           6000          1.186       0.9300
          10000          1.143       1.1700   /
--
--    REF.PRES.  FVF-WATER  COMPRESSIBILITY  VISCOSITY  VISCOSIBILITY
--     (PSIA)     (RB/STB)      (1/PSI)      (CP)         (1/PSI)
--
PVTW
       3275        1.029        0.000003     0.360     0.0      /
       3275        1.029        0.000003     0.360     0.0      /
--
--      GOR     BUBBLE PT.
--              PRESSURE
--  (MSCF/STB)   (PSIA)
--
RSCONST
       .303       1145  /
--
--    REF.PRES   ROCK-COMPRESSIBILITY
--     (PSIA)           (1/PSI)
--
ROCK
       3275           0.0000044        /
       3275           0.0000065        /
--
--
SOF2
     0.0000    0.0000
     0.0023    0.0000
     0.0332    0.0000
     0.0662    0.0000
     0.0972    0.0000
     0.1322    0.0000
     0.1664    0.0000
     0.2095    0.0000
     0.2442    0.0000
     0.2900    0.0000
     0.3368    0.1066
     0.3685    0.1791
     0.4024    0.2562
     0.4377    0.3367
     0.4692    0.4087
     0.5047    0.4894
     0.5428    0.5765
     0.5819    0.6656
     0.6195    0.7512
     0.6531    0.8279
     0.6884    0.9084
     0.7151    0.9691
     0.7274    0.9972
     0.7286    1.0000

/  END OF TABLE NO.  1

     0.0000    0.0000
     0.0025    0.0000
     0.0334    0.0000
     0.0667    0.0000
     0.0979    0.0000
     0.1330    0.0000
     0.1675    0.0000
     0.2108    0.0000
     0.2458    0.0000
     0.2900    0.0000
     0.3390    0.1108
     0.3711    0.1833
     0.4052    0.2603
     0.4408    0.3408
     0.4726    0.4126
     0.5083    0.4932
     0.5466    0.5799
     0.5859    0.6685
     0.6235    0.7536
     0.6572    0.8296
     0.6925    0.9094
     0.7191    0.9695
     0.7313    0.9972
     0.7326    1.0000

/  END OF TABLE NO.  2

--
--      WATER SAT    WATER REL PERM   WATER-OIL
--         (Sw)          (Krw)        CAP PRESS
--
SWFN
     0.2714    0.0000  408.9178
     0.2726    0.0005   55.5865
     0.2849    0.0052   32.4815
     0.3116    0.0156   22.1294
     0.3469    0.0293   16.2793
     0.3805    0.0423   12.9311
     0.4181    0.0569   10.2715
     0.4572    0.0720    8.1590
     0.4953    0.0868    6.4809
     0.5308    0.1005    5.1480
     0.5623    0.1128    4.0892
     0.5976    0.1264    3.0082
     0.6315    0.1396    2.0494
     0.6632    0.1519    1.1976
     0.7100    0.1700    0.4089
     0.7558    0.2931    0.3507
     0.7905    0.3866    0.3008
     0.8336    0.5024    0.2389
     0.8678    0.5945    0.1898
     0.9028    0.6885    0.1396
     0.9338    0.7718    0.0951
     0.9668    0.8607    0.0477
     0.9977    0.9439    0.0032
     1.0000    0.9500    0.0000

/  END OF TABLE NO.  1

     0.2674    0.0000  408.9178
     0.2687    0.0005   55.5865
     0.2809    0.0052   32.4815
     0.3075    0.0154   22.1294
     0.3428    0.0290   16.2793
     0.3765    0.0419   12.9311
     0.4141    0.0564   10.2715
     0.4534    0.0714    8.1590
     0.4917    0.0862    6.4809
     0.5274    0.0999    5.1480
     0.5592    0.1121    4.0892
     0.5948    0.1257    3.0082
     0.6289    0.1388    2.0494
     0.6610    0.1512    1.1976
     0.7100    0.1700    0.4089
     0.7542    0.2888    0.3507
     0.7892    0.3829    0.3008
     0.8325    0.4995    0.2389
     0.8670    0.5922    0.1898
     0.9021    0.6868    0.1396
     0.9333    0.7707    0.0951
     0.9666    0.8601    0.0477
     0.9975    0.9434    0.0035
     1.0000    0.9500    0.0000

/  END OF TABLE NO.  2
--
--   END POINTS FOR PLUS X-DIRECTION
--
SWCRX
--
 0.1205 0.1205 0.1205 0.1442
 0.1442 0.1442 0.1442 0.1442
 0.1442 0.1442 0.1442 0.1442
 0.1767 0.1767 0.1767 0.1767  /
SWUX
--
 0.7101 0.7101 0.7101 0.7101
 0.7101 0.7101 0.7101 0.7101
 0.7101 0.7101 0.7101 0.7101
 0.7101 0.7101 0.7101 0.7101  /
SWCRX-
--
 0.1205 0.1205 0.1205 0.1442
 0.1442 0.1442 0.1442 0.1442
 0.1442 0.1442 0.1442 0.1442
 0.1767 0.1767 0.1767 0.1767 /
SWUX-
--
 0.7101 0.7101 0.7101 0.7101
 0.7101 0.7101 0.7101 0.7101
 0.7101 0.7101 0.7101 0.7101
 0.7101 0.7101 0.7101 0.7101  /
SWCRY
--
 0.1205 0.1205 0.1205 0.1442
 0.1442 0.1442 0.1442 0.1442
 0.1442 0.1442 0.1442 0.1442
 0.1767 0.1767 0.1767 0.1767  /
SWUY
--
 0.7101 0.7101 0.7101 0.7101
 0.7101 0.7101 0.7101 0.7101
 0.7101 0.7101 0.7101 0.7101
 0.7101 0.7101 0.7101 0.7101 /
SWCRY-
--
 0.1205 0.1205 0.1205 0.1442
 0.1442 0.1442 0.1442 0.1442
 0.1442 0.1442 0.1442 0.1442
 0.1767 0.1767 0.1767 0.1767  /
SWUY-
--
 0.7101 0.7101 0.7101 0.7101
 0.7101 0.7101 0.7101 0.7101
 0.7101 0.7101 0.7101 0.7101
 0.7101 0.7101 0.7101 0.7101  /
SWCRZ-
--
 0.1205 0.1205 0.1205 0.1442
 0.1442 0.1442 0.1442 0.1442
 0.1442 0.1442 0.1442 0.1442
 0.1767 0.1767 0.1767 0.1767  /
SWUZ-
--
 0.7101 0.7101 0.7101 0.7101
 0.7101 0.7101 0.7101 0.7101
 0.7101 0.7101 0.7101 0.7101
 0.7101 0.7101 0.7101 0.7101 /
SWCRZ
--
 0.1205 0.1205 0.1205 0.1442
 0.1442 0.1442 0.1442 0.1442
 0.1442 0.1442 0.1442 0.1442
 0.1767 0.1767 0.1767 0.1767 /
SWUZ
--
 0.7101 0.7101 0.7101 0.7101
 0.7101 0.7101 0.7101 0.7101
 0.7101 0.7101 0.7101 0.7101
 0.7101 0.7101 0.7101 0.7101 /
SOWCRX
--
 0.2900 0.2900 0.2900 0.2900
 0.2900 0.2900 0.2900 0.2900
 0.2900 0.2900 0.2900 0.2900
 0.2900 0.2900 0.2900 0.2900 /
SWLX
--
 0.1205 0.1205 0.1205 0.1442
 0.1442 0.1442 0.1442 0.1442
 0.1442 0.1442 0.1442 0.1442
 0.1767 0.1767 0.1767 0.1767 /
SOWCRX-
--
 0.2900 0.2900 0.2900 0.2900
 0.2900 0.2900 0.2900 0.2900
 0.2900 0.2900 0.2900 0.2900
 0.2900 0.2900 0.2900 0.2900 /
SWLX-
--
 0.1205 0.1205 0.1205 0.1442
 0.1442 0.1442 0.1442 0.1442
 0.1442 0.1442 0.1442 0.1442
 0.1767 0.1767 0.1767 0.1767 /
SOWCRY
--
 0.2900 0.2900 0.2900 0.2900
 0.2900 0.2900 0.2900 0.2900
 0.2900 0.2900 0.2900 0.2900
 0.2900 0.2900 0.2900 0.2900 /
SWLY
--
 0.1205 0.1205 0.1205 0.1442
 0.1442 0.1442 0.1442 0.1442
 0.1442 0.1442 0.1442 0.1442
 0.1767 0.1767 0.1767 0.1767 /
SOWCRY-
--
 0.2900 0.2900 0.2900 0.2900
 0.2900 0.2900 0.2900 0.2900
 0.2900 0.2900 0.2900 0.2900
 0.2900 0.2900 0.2900 0.2900 /
SWLY-
--
 0.1205 0.1205 0.1205 0.1442
 0.1442 0.1442 0.1442 0.1442
 0.1442 0.1442 0.1442 0.1442
 0.1767 0.1767 0.1767 0.1767 /
SOWCRZ-
--
 0.2900 0.2900 0.2900 0.2900
 0.2900 0.2900 0.2900 0.2900
 0.2900 0.2900 0.2900 0.2900
 0.2900 0.2900 0.2900 0.2900 /
SWLZ-
--
 0.1205 0.1205 0.1205 0.1442
 0.1442 0.1442 0.1442 0.1442
 0.1442 0.1442 0.1442 0.1442
 0.1767 0.1767 0.1767 0.1767 /
SOWCRZ
--
 0.2900 0.2900 0.2900 0.2900
 0.2900 0.2900 0.2900 0.2900
 0.2900 0.2900 0.2900 0.2900
 0.2900 0.2900 0.2900 0.2900 /
SWLZ
--
 0.1205 0.1205 0.1205 0.1442
 0.1442 0.1442 0.1442 0.1442
 0.1442 0.1442 0.1442 0.1442
 0.1767 0.1767 0.1767 0.1767 /

REGIONS  ===============================================================
--
RPTREGS
     -- Controls on output from regions section
     -- 
     'PVTNUM' 'SATNUM' 'EQLNUM' 'FIPNUM' 'KRNUMX' 'KRNUMX-' 'KRNUMY' 'KRNUMY-' 'KRNUMZ' 'KRNUMZ-' 
     'IMBNUM' 'IMBNUMX' 'IMBNUMX-' 'IMBNUMY' 'IMBNUMY-' 'IMBNUMZ' 
/
--
EQUALS
   'EQLNUM'  1    1 4  1 1  1 2 /
   'EQLNUM'  2    1 4  2 2  1 2 /
/
PVTNUM
 4*1 4*2 4*1 4*2  /

--
--       SATNUM VALUES
--
SATNUM
1 1 1 1  1 1 1 1
2 2 2 2  2 2 2 2 /
--
KRNUMX
1 1 1 1  1 1 1 1
2 2 2 2  2 2 2 2 /
--
KRNUMX-
1 1 1 1  1 1 1 1
2 2 2 2  2 2 2 2 /
--
KRNUMY
1 1 1 1  1 1 1 1
2 2 2 2  2 2 2 2 /
--
KRNUMY-
1 1 1 1  1 1 1 1
2 2 2 2  2 2 2 2 /
--
KRNUMZ
1 1 1 1  1 1 1 1
2 2 2 2  2 2 2 2 /
--
KRNUMZ-
1 1 1 1  1 1 1 1
2 2 2 2  2 2 2 2 /
--
FIPNUM
1 1 1 1  1 1 1 1
2 2 2 2  2 2 2 2 /
--

SOLUTION

EQUIL
 5000 2000 5160 0  /
 5000 2000 5150 0  /

RPTSOL
 -- Initialisation Print Output
 -- 
'RESTART=3' /

SCHEDULE

--
VFPPROD
1    7135   'LIQ'  'WCT'  'GOR'  /
1000  2000  3000  4000  5000  10000  15000  20000  25000  /
115  165  265  /
0.0   0.20   0.40   0.60   0.80   0.999  /
320  /
0  /
1 1 1 1  1996 1888 1848 1849 1879 2207 2621 3070 3569  /
1 2 1 1  2254 2156 2122 2121 2144 2425 2809 3243 3733  /
1 3 1 1  2514 2444 2420 2419 2439 2672 3017 3428 3906  /
1 4 1 1  2800 2759 2745 2749 2764 2949 3250 3632 4090  /
1 5 1 1  3115 3098 3098 3107 3123 3274 3528 3871 4299  /
1 6 1 1  3455 3461 3470 3483 3500 3634 3855 4162 4555  /
2 1 1 1  2143 2059 2032 2033 2054 2322 2692 3121 3609  /
2 2 1 1  2368 2307 2286 2289 2308 2539 2884 3298 3775  /
2 3 1 1  2623 2578 2563 2565 2582 2779 3093 3485 3950  /
2 4 1 1  2892 2867 2862 2868 2884 3052 3328 3693 4139  /
2 5 1 1  3194 3183 3185 3196 3212 3358 3601 3934 4354  /
2 6 1 1  3505 3511 3520 3533 3550 3684 3905 4212 4605  /
3 1 1 1  2350 2311 2302 2309 2327 2531 2844 3235 3699  /
3 2 1 1  2564 2537 2532 2538 2558 2741 3034 3413 3868  /
3 3 1 1  2802 2780 2779 2789 2805 2971 3244 3605 4048  /
3 4 1 1  3058 3043 3045 3055 3072 3224 3476 3817 4245  /
3 5 1 1  3327 3323 3328 3340 3356 3497 3730 4053 4463  /
3 6 1 1  3605 3611 3620 3633 3650 3784 4005 4312 4704  /

--
VFPPROD
2    7135   'LIQ'  'WCT'  'GOR'  /
1000  2000  3000  4000  5000  10000  15000  20000  25000  /
115  165  265  /
0.0   0.20   0.40   0.60   0.80   0.999  /
320  /
0  /
1 1 1 1 1993 1887 1851 1858 1895 2265 2735 3264 3869  /
1 2 1 1 2252 2155 2125 2129 2175 2478 2921 3436 4033  /
1 3 1 1 2512 2444 2423 2426 2450 2722 3127 3620 4205  /
1 4 1 1 2799 2759 2749 2756 2776 2997 3358 3823 4387  /
1 5 1 1 3115 3099 3102 3115 3135 3323 3635 4061 4593  /
1 6 1 1 3456 3463 3475 3491 3512 3682 3961 4350 4846  /
2 1 1 1 2140 2058 2034 2040 2067 2376 2804 3315 3908  /
2 2 1 1 2366 2306 2289 2296 2320 2589 2995 3490 4075  /
2 3 1 1 2622 2578 2566 2572 2593 2828 3202 3677 4248  /
2 4 1 1 2891 2868 2865 2876 2896 3100 3436 3884 4435  /
2 5 1 1 3194 3185 3190 3203 3224 3406 3709 4124 4648  /
2 6 1 1 3506 3513 3525 3541 3562 3732 4011 4399 4896  /
3 1 1 1 2348 2311 2305 2316 2339 2581 2954 3428 3999  /
3 2 1 1 2562 2537 2535 2544 2569 2790 3144 3605 4168  /
3 3 1 1 2802 2780 2783 2796 2817 3020 3352 3797 4347  /
3 4 1 1 3057 3044 3049 3063 3084 3272 3584 4008 4542  /
3 5 1 1 3327 3325 3333 3348 3368 3545 3838 4243 4757  /
3 6 1 1 3606 3613 3625 3641 3662 3832 4111 4499 4995  /

--
VFPPROD
3    7135   'LIQ'  'WCT'  'GOR'  /
1000  2000  3000  4000  5000  10000  15000  20000  25000  /
115  165  265  /
0.0   0.20   0.40   0.60   0.80   0.999  /
320  /
0  /
1 1 1 1 2160 2051 1996 1931 1886 1801 1825 1903 2008  /
1 2 1 1 2381 2303 2237 2195 2155 2083 2101 2164 2255  /
1 3 1 1 2614 2548 2500 2467 2442 2390 2406 2457 2527  /
1 4 1 1 2863 2818 2789 2769 2756 2728 2744 2784 2840  /
1 5 1 1 3152 3122 3107 3098 3093 3092 3112 3145 3190  /
1 6 1 1 3453 3454 3455 3456 3458 3471 3493 3524 3563  /
2 1 1 1 2252 2175 2131 2095 2060 1999 2017 2074 2159  /
2 2 1 1 2461 2401 2360 2334 2306 2260 2276 2328 2397  /
2 3 1 1 2689 2642 2614 2591 2574 2543 2560 2602 2661  /
2 4 1 1 2946 2902 2882 2871 2862 2851 2869 2905 2955  /
2 5 1 1 3221 3199 3188 3182 3178 3181 3202 3234 3277  /
2 6 1 1 3503 3504 3505 3506 3508 3521 3543 3574 3613  /
3 1 1 1 2408 2368 2341 2322 2309 2287 2306 2349 2411  /
3 2 1 1 2624 2575 2556 2543 2534 2520 2540 2580 2635  /
3 3 1 1 2852 2811 2791 2780 2774 2771 2792 2828 2878  /
3 4 1 1 3091 3063 3050 3042 3038 3040 3061 3095 3139  /
3 5 1 1 3342 3329 3323 3320 3319 3326 3348 3379 3420  /
3 6 1 1 3603 3604 3605 3606 3608 3621 3643 3674 3713  /

VFPINJ
1     7.13600E+03   'WAT'   /
1.00000E+03  5.00000E+03  1.00000E+04  1.50000E+04  2.00000E+04
2.50000E+04  3.00000E+04  3.50000E+04  4.00000E+04  5.00000E+04 /
1.30000E+03 /

1   4.49202E+03  4.49064E+03  4.48699E+03  4.48141E+03  4.47401E+03
    4.46483E+03  4.45392E+03  4.44130E+03  4.42698E+03  4.39333E+03 /

IMPES
/
--     0.7  0.7  1500.0  /
--


--     maximum next   maximum    minimum    minimum choppable
--     timestep       timestep   timestep   timestep
TUNING
/
/
/

DEBUG
1 0 0 0 0 0 0 0 0 0
0 0 0 0 0 0 0 0 0 0
0 0 0 0 0 0 0 0 0 0
0 0 0 0 0 0 0 0 0 0
0 0 0 0 1 4 1 2 1 2
/
WELSPECS
    'P       ' 'G'    4  2    5400 'OIL'  /
    'I       ' 'G'    1  1    5335 'WAT'  /
/
COMPDAT
    'P       '   4  2 1  1 'OPEN' 0   -1   0.5  /
    'I       '   1  1 2  2 'OPEN' 1   -1   0.5  /
  /

COMPRP
    'P'  4*  1  0.3  /
/

WCONPROD
'P       ' 'OPEN' 'BHP' 3* 10000  1*  1780.0 /
/

WCONINJE
     'I       ' 'WAT' 'OPEN' 'RATE'  10000  1*  7000 /
  /

RPTSCHED
 'PRES' 'SOIL' 'RESTART=3' /

TSTEP
2*100 /

DEBUG
1 0 0 0 0 0 0 0 0 0
0 0 0 0 0 0 0 0 0 0
0 0 0 0 0 0 0 0 0 0
0 0 0 0 0 0 0 0 0 0
0 0 0 0 1 4 1 2 1 2
/

TSTEP
 5*100 /

END

