-----------------------------------------------------------------------------------------------------------------
-- This is Low salinity water injection example data set. To make relative permeability  
-- and capillary pressure salinity dependent to mimic a decrease of residual oil saturatoin 
-- induced by fresh water injection. 
-- 3 phase. New Keywords added: LOWSALT, LSALTFNC, LWSLTNUM, LSLTWNUM. For more info read Brine Tracking Option.
-- The run contains surfactant and polymer combined with low salinity functionality.
------------------------------------------------------------------------------------------------------------------
RUNSPEC     ==================================================================================================
TITLE
 Fresh water injection /

DIMENS
   15   15    3  /

OIL
WATER
GAS

LOWSALT

METRIC

TABDIMS
    2    1   20   20    1   20 /

WELLDIMS
    3    10    1    3 /

START
   1 'JAN' 1990  /

UNIFIN
UNIFOUT

ACTDIMS
10 /

UDQDIMS
--MAX NO.     MAX NO.   MAX NO.     MAX NO.  MAX   MAX   MAX     MAX   MAX      MAX
--FUNCTIONS   ARGUMNTS  CONECTION   FIELD    GRUP  REGN  SEGMNT  WELL  AQUIFER  BLOCK
    12           12        2          10        0     4    0      10    0        4  /

UDQPARAM
-- SEED  RANGE  UNDEFINEDVALUE  TOLERANCE
    1     1e19     -2.5         1.0E-4     /

--NOSIM
GRID      ==============================================================

INIT

DX
  675*10   /
DY
  675*10   /
DZ
  675*10   /

PERMX
  675*200   /

COPY
 PERMX  PERMY  /
 PERMX  PERMZ  /
/

MULTIPLY
PERMZ 0.1 /
/
PORO
  675*0.25   /

TOPS
 225*2600 /
 
PROPS     ==============================================================
LSALTFNC
0.0    0.5  1*
10.0   0.3  1*
20.0   0.1  1*
/

/
SWOF
-- SL = SWCR = 0.2   High salinity curves
--   Sw   Krw   Pwo
			
0.200		0.000		1.000		0
0.255		0.005		0.729		0
0.310		0.020		0.512		0
0.365		0.045		0.343		0
0.420		0.080		0.216		0
0.475		0.125		0.125		0
0.530		0.180		0.064		0
0.585		0.245		0.027		0
0.640		0.320		0.008		0
0.695		0.405		0.001		0
0.750		0.500		0.000		0
1.000		1.000		0.000		0
/
-- low salinity   or    
 -- Sw	Krw			 Kro
0.150		0.000		1.000   0
0.225		0.004		0.729   0
0.300		0.014		0.512   0
0.375		0.032		0.343   0
0.450		0.056		0.216   0
0.525		0.088		0.125   0
0.600		0.126		0.064   0
0.675		0.172		0.027   0
0.750		0.224		0.008   0
0.825		0.284		0.001   0
0.900		0.350		0.000   0
1.000		1.000		0.000		0
/

SGOF
-- High salinity curves
-- SG		Krg			Kro			Pc
0.00	0.000		1.000		0.000
0.08	0.001		0.729		0.000
0.16	0.005		0.512		0.000
0.24	0.016		0.343		0.000
0.32	0.038		0.216		0.000
0.40	0.075		0.125		0.000
0.48	0.130		0.064		0.000
0.56	0.206		0.027		0.000
0.64	0.307		0.008		0.000
0.72	0.437		0.001		0.000
0.80	0.600		0.000		0.000
/
-- Low salinity curves
0.00	0.000		1.000		0.000
0.09	0.005		0.810		0.000
0.17	0.020		0.640		0.000
0.26	0.045		0.490		0.000
0.34	0.080		0.360		0.000
0.43	0.125		0.250		0.000
0.51	0.180		0.160		0.000
0.60	0.245		0.090		0.000
0.68	0.320		0.040		0.000
0.77	0.405		0.010		0.000
0.85	0.500		0.000		0.000
/
PVDO
  200    1.0     0.47
  280    0.999   0.47
  300    0.998   0.47
/

PVDG
--   PGAS   BGAS   		VISGAS
10.00000		0.12668		0.01316
35.78947		0.03436		0.01361
61.57895		0.01944		0.01426
87.36842		0.01340		0.01506
113.15789		0.01017		0.01601
138.94737		0.00820		0.01711
164.73684		0.00689		0.01832
190.52632		0.00599		0.01962
216.31579		0.00533		0.02097
242.10526		0.00484		0.02234
270.00000		0.00444		0.02383
293.68421		0.00417		0.02507
319.47368		0.00393		0.02640
345.26316		0.00374		0.02770
371.05263		0.00358		0.02896
396.84211		0.00344		0.03019
422.63158		0.00332		0.03138
448.42105		0.00322		0.03254
474.21053		0.00313		0.03367
500.00000		0.00305		0.03476
/
ROCK
 270 .3E-5 /

DENSITY
-- o   w    g
 850. 1000. 1.2 /
PVTWSALT
 270.0 0.0/
 0.0  1.030  4.6E-5  0.5  0.0
10.0  1.030  4.6E-5  0.5  0.0 /

REGIONS    =============================================================

SATNUM
-- immiscible, high salinity = 1
 675*1 /

LWSLTNUM
-- low salinity curves
 675*2
/

RPTREGS
 24*0 /

RPTREGS
SURFNUM LWSLTNUM LSLTWNUM /
SOLUTION   =============================================================

EQUIL
-- Datum   Pressure   WOC
2680       270        2680 1*  2000/

SALTVD
 5000.0  30.0
 5500.0  30.0 /

RPTRST
'BASIC=2'  /

SUMMARY    ===========================================================
FSPR
FSPT
FSIR
FSIT
FWIR
FOPR
FGPR
FOPT
FPR
FOPV
FWIT
FOE
TCPU
GSPR
 'G' /

GSPT
 'G' /
GSIR
 'G' /
GSIT
 'G' /
GSPR
 'G' /
WSPR
 'OP' /
WSPT
 'OP' /
WSIR
'INJ' /
WSIT
'OP ' /
WBHP
/
WOPR
'OP' /
WGPR
'OP' /
WLPR
'OP' /
WWPR
'OP' /
WWCT
'OP' /
WWIR
'INJ'/
CSFR
 'OP'  15 15 1 /      con. salt flow rate (+/-)
 'INJ'  1 1 1 /
/
CSPT
 'OP'  15 15 1 /
/
CSIT
 'INJ'  1 1 1 /
/

BSCN
 1 1 1 /
 1 1 2 /
 4 4 1 /
 5 5 1 /
 7 7 1 /
10 10 1 /
12 12 1 /
14 14 1 /
15 15 1 /
/
BSIP
 1 1 1 / salt in place
 1 1 2 /
 4 4 1 /
 5 5 1 /
 7 7 1 /
10 10 1 /
12 12 1 /
14 14 1 /
15 15 1 /
/

BPR
 1 1 1 /
 1 1 2 /
 4 4 1 /
 5 5 1 /
 7 7 1 /
10 10 1 /
12 12 1 /
14 14 1 /
15 15 1 /
 /

BOSAT
 1 1 1 /
 1 1 2 /
 4 4 1 /
 5 5 1 /
 7 7 1 /
10 10 1 /
12 12 1 /
14 14 1 /
15 15 1 /

/
BGSAT
 1 1 1 /
 1 1 2 /
 4 4 1 /
 5 5 1 /
 7 7 1 /
10 10 1 /
12 12 1 /
14 14 1 /
15 15 1 /
/
BWSAT
 1 1 1 /
 1 1 2 /
 4 4 1 /
 5 5 1 /
 7 7 1 /
10 10 1 /
12 12 1 /
14 14 1 /
15 15 1 /
/
BWVIS
 1 1 1 /
 1 1 2 /
 4 4 1 /
 5 5 1 /
 7 7 1 /
10 10 1 /
12 12 1 /
14 14 1 /
15 15 1 /
/


BOKR
 1 1 1 /
 1 1 2 /
 4 4 1 /
 5 5 1 /
 7 7 1 /
10 10 1 /
12 12 1 /
14 14 1 /
15 15 1 /
/
BGKR
 1 1 1 /
 1 1 2 /
 4 4 1 /
 5 5 1 /
 7 7 1 /
10 10 1 /
12 12 1 /
14 14 1 /
15 15 1 /
/
BWKR
 1 1 1 /
 1 1 2 /
 4 4 1 /
 5 5 1 /
 7 7 1 /
10 10 1 /
12 12 1 /
14 14 1 /
15 15 1 /
/
BWKR
 1 1 1 /
 1 1 2 /
 4 4 1 /
 5 5 1 /
 7 7 1 /
10 10 1 /
12 12 1 /
14 14 1 /
15 15 1 /
/
FUHCPVI

ALL
SEPARATE
RUNSUM
MSUMLINS
MSUMNEWT

SCHEDULE   ===========================================================

TUNING
1 30 /
 /
 /

WELSPECS
'OP'   'G'   15 15  2600  'OIL'  /
'INJ'  'G'   1  1   2600  'WAT'  /
/
COMPDAT
'OP      '   15   15   1   3  'OPEN'   0  .0   157E-3 /
'INJ     '   1    1    1   3  'OPEN'   0  .0   157E-3 /
/

WCONPROD
'OP' 'OPEN' 'RESV' 4* 100 0.0 4* /
/

WCONINJE
'INJ'  'WAT' 'OPEN' 'RESV' 1* 100  /
/

UDQ 
DEFINE FUHCPV FOPV /
UPDATE FUHCPV NEXT /
/
TSTEP
1 /
WCONPROD
'OP' 'OPEN' 'RESV' 4* 100 0.0 4* /
/

WCONINJE
'INJ' 'WAT' 'OPEN' 'RESV' 1* 100  /
/

UDQ 
DEFINE FUHCPVI FWIT/FUHCPV / 
/

TSTEP
12*10 /
WSALT
INJ 0.0 /
/
TSTEP
8*30/
WSALT
INJ 30 /
/
TSTEP
3*30/
TSTEP
6*30/


END


