-- Contains Keyword WSEGDFPA to adjust MSW drift flux parameters
RUNSPEC

TITLE
 WSEGDFPA test - turns off drift flux in separation test

DIMENS
 5  5  1  /

OIL

WATER

GAS

DISGAS

FIELD

TABDIMS
 1  1  15  15  2  15  /


WELLDIMS
 1  1  1  1  /


WSEGDIMS
 1  41  1  /

START
 1 'JAN' 2000 /

-- RPTRUNSP
 
GRID        =========================================================
 
NOGGF
 
EQUALS
 'DX'     10000  /
 'DY'     10000  /
 'PERMX'  1000  /
 'PERMY'  1000  /
 'PERMZ'  10   /
 'DZ'     10   /
 'PORO'   0.4  /
 'TOPS'   995 /
 'DZ'     10    /
 /
 
RPTGRID
  24*0 /
 
PROPS       ==========================================================

SWFN
-- Sw    Krw    Pcow
  0.22   0.0    6.30
  0.3    0.07   3.60
  0.4    0.15   2.70
  0.5    0.24   2.25
  0.6    0.33   1.80
  0.8    0.65   0.90
  0.9    0.83   0.45
  1.0    1.0    0.0    /
 
SGFN
-- Sg    Krg    Pcgo
  0.0   0.0     0.0
  0.04  0.0     0.2
  0.1   0.022   0.5
  0.2   0.1     1.0
  0.3   0.24    1.5
  0.4   0.34    2.0
  0.5   0.42    2.5
  0.6   0.5     3.0
  0.7   0.8125  3.5
  0.78  1.0     3.9    /
 
SOF3
-- So   Krow    Krog
  0.0   0.0     0.0    
  0.2   0.0     0.0
  0.38  1*      0.0
  0.4   0.0048  1*
  0.48  1*      0.02
  0.5   0.0649  1*
  0.58  1*      0.1
  0.6   0.125   1*
  0.68  1*      0.33
  0.7   0.4     1*
  0.74  1*      0.6
  0.78  1.0     1.0   /

--SWOF
--  0.22  0     1.0     3.5
--  0.3   0.07  0.4     2
--  0.4   0.15  0.125   1.5
--  0.5   0.24  0.0649  1.25
--  0.6   0.33  0.0048  1
--  0.8   0.65  0.0     0.5
--  0.9   0.83  1*      0.25
--  1     1     0.0     0      /

--SLGOF
--    0.22  1       0.0     3.9  
--    0.3   0.8125  1*      3.5
--    0.4   0.5     1*      3
--    0.5   0.42    1*      2.5
--    0.6   0.34    0.0     2
--    0.7   0.24    0.02    1.5
--    0.8   0.1     0.1     1
--    0.9   0.022   0.33    0.5
--    0.96  0       0.6     0.2
--    1.0   0       1.0     0     /
 
 
PVTW
3000  1.00341  3.0D-6  0.96  0  /
 
 
ROCK
3000    4.0D-6   /
 
DENSITY
45   63.02   0.0702  /
 
PVDG
 400  5.9   0.013
 800  2.95  0.0135
1200  1.96  0.014
1600  1.47  0.0145
2000  1.18  0.015
2400  0.98  0.0155
2800  0.84  0.016
3200  0.74  0.0165
3600  0.65  0.017
4000  0.59  0.0175
4400  0.54  0.018
4800  0.49  0.0185
5200  0.45  0.019
5600  0.42  0.0195 /
 
PMAX
 7000 /
  
PVCO
400  0.165   1.012    1.17   5.0E-5  1*
800  0.335   1.0255   1.14     2*
1200 0.500   1.038    1.11     2*
1600 0.665   1.051    1.08     2*
2000 0.828   1.063    1.06     2*
2400 0.985   1.075    1.03     2*
2800 1.130   1.087    1.00     2*
3200 1.270   1.0985   0.98     2*
3600 1.390   1.11     0.95     2*
4000 1.500   1.12     0.94     2*
4400 1.600   1.13     0.92     2*
4800 1.676   1.14     0.91     2*
5200 1.750   1.148    0.9      2*
5600 1.810   1.155    0.89     2*
  /
 
 
SOLUTION    ============================================================
 
PRESSURE
 25*1200 /
 
SWAT
 25*0.35 /
 
SGAS
 25*0.048 /
 
RS
 25*0.5 / 
   
SUMMARY      ===========================================================

WOPR
 'PROD' /

WWPR
 'PROD' /

WGPR
 'PROD' /

SOHF
 'PROD' /
 /

SWHF
 'PROD' /
 /

SGHF
 'PROD' /
 /

SOFV
 'PROD' /
 /

SWFV
 'PROD' /
 /

SGFV
 'PROD' /
 /

SGLVD
 'PROD' /
 /

SGLPP
 'PROD' /
 /

SOWVD
 'PROD' /
 /

SOWPP
 'PROD' /
 /

EXCEL


RUNSUM

SCHEDULE     ===========================================================
 
 
DRSDT
   1.0E20  /
 
RPTSCHED
  'WELLS=2'  'SUMMARY=2' 
  'CPU=2' 'WELSPECS'  /

 
WELSPECS
 'PROD' 'G' 1 1 1005 'OIL' 0.0  'STD'  'STOP' 'YES' 0 'AVG' 0 /
/
 
COMPDAT

 'PROD' 2 2 1 1   3*  0.2   3*  /  
/

WSEGDFPA
  0.0 2* 1.0 /

WELSEGS

-- Name    Dep 1   Tlen 1  Vol 1
  'PROD'   900      0      0.0  'INC' 1*  'DF' /

-- First   Last   Branch   Outlet  Length   Depth  Diam  Ruff  Area  Vol
-- Seg     Seg    Num      Seg              Chang 
-- Main Stem
    2       41     1        1       2.5      2.5     0.2   1.E-3  1*   1* /
 / 

COMPSEGS

-- Name
  'PROD' /

-- I  J  K  Brn  Start   End     Dirn   End
--          No   Length  Length  Penet  Range
   2  2  1  1      95      1*     'Z'   /
 /


WCONPROD
 'PROD' 'OPEN' 'LRAT'  3*  1000  1*  400   /
 /
 
TUNING
 /
 /
 4* 16 /

TSTEP
 1 /

TUNING
  0.00001  0.1  0.00001  0.00005  1.5   /
 /
 4*  16 /
 
WSEGITER
 /  

wpimult
 'prod' 1.0e-6 /
 /

WELOPEN
 'PROD' 'STOP' /
 /
  
TSTEP   
 1   
/

END
