RUNSPEC
TITLE
  NETWORK FACILITY TEST

DIMENS
    9    9    3  /

OIL

WATER

GAS

DISGAS

FIELD

TABDIMS
    1    1   16   15    3   15 /

REGDIMS
    3    1    0    0  /

WELLDIMS
   20    3    4   10 /

VFPPDIMS
    6    3    3    4    1    3 /

START
   1 'JAN' 1983  /

NSTACK
    4 /

GRID    ================================================================

EQUALS
     'DX'     1000    /
     'DY'     1000    /
     'DZ'     20      /
     'PERMX'  300     /
     'PERMY'  300     /
     'PERMZ'  30      /
     'PORO'   0.3     /
     'TOPS'   7000      1  9  1  1  1  1   /
     'TOPS'   7020      1  9  2  2  1  1   /
     'TOPS'   7040      1  9  3  3  1  1   /
     'TOPS'   7060      1  9  4  4  1  1   /
     'TOPS'   7080      1  9  5  5  1  1   /
     'TOPS'   7100      1  9  6  6  1  1   /
     'TOPS'   7120      1  9  7  7  1  1   /
     'TOPS'   7140      1  9  8  8  1  1   /
     'TOPS'   7160      1  9  9  9  1  1   /
     'MULTX'  0         3  3  1  9  1  3   /
     'MULTX'  0         6  6  1  9  1  3   /
/

RPTGRID
   /

PROPS    ===============================================================

SWFN

  0.22  0     7
  0.3   0.07  4
  0.4   0.15  3
  0.5   0.24  2.5
  0.6   0.33  2
  0.8   0.65  1
  0.9   0.83  0.5
  1     1     0      /

SGFN

  0     0       0
  0.04  0       0.2
  0.1   0.022   0.5
  0.2   0.1     1
  0.3   0.24    1.5
  0.4   0.34    2
  0.5   0.42    2.5
  0.6   0.5     3
  0.7   0.8125  3.5
  0.78  1       3.9    /

SOF3

0        0         0
0.2      0         0
0.38     0.00432   0
0.4      0.0048    0.004
0.48     0.05288   0.02
0.5      0.0649    0.036
0.58     0.11298   0.1
0.6      0.125     0.146
0.68     0.345     0.33
0.7      0.4       0.42
0.74     0.7       0.6
0.78     1         1          /

PVTW
3000  1.00341  3.0D-6  0.96  0  /

ROCK
3600    4.0D-6   /

DENSITY
45   63.02   0.0702  /

PVDG
 400  5.9   0.013
 800  2.95  0.0135
1200  1.96  0.014
1600  1.47  0.0145
2000  1.18  0.015
2400  0.98  0.0155
2800  0.84  0.016
3200  0.74  0.0165
3600  0.65  0.017
4000  0.59  0.0175
4400  0.54  0.018
4800  0.49  0.0185
5200  0.45  0.019
5600  0.42  0.0195 /

PVTO
   0.165      400   1.012    1.17  /
   0.335      800   1.0255   1.14  /
   0.500     1200   1.038    1.11  /
   0.665     1600   1.051    1.08  /
   0.828     2000   1.063    1.06  /
   0.985     2400   1.075    1.03  /
   1.130     2800   1.087    1.00  /
   1.270     3200   1.0985   0.98  /
   1.390     3600   1.11     0.95  /
   1.500     4000   1.12     0.94  /
   1.600     4400   1.13     0.92  /
   1.676     4800   1.14     0.91  /
   1.750     5200   1.148    0.9   /
   1.810     5600   1.155    0.89
             6000   1.1504   0.89
             6400   1.1458   0.89
             6800   1.1412   0.89
             7200   1.1367   0.89  /
/

RPTPROPS
    /

REGIONS    ===========================================================

EQUALS
     'FIPNUM'    1      1  3  1  9  1  3   /
     'FIPNUM'    2      4  6  1  9  1  3   /
     'FIPNUM'    3      7  9  1  9  1  3   /
/

RPTREGS
     /

SOLUTION    ============================================================

--   DATUM  DATUM   OWC    OWC    GOC    GOC   RSVD   RVVD   SOLN
--   DEPTH  PRESS  DEPTH   PCOW  DEPTH   PCOG  TABLE  TABLE  METH

EQUIL
     7010   4000   9000    0.0   7010    0.0    0      0       5  /

RPTSOL
   -- Initialisation Print Output
   -- 
'PRES' 'SWAT' 'SGAS' 'RS' 'FIP=2' 'EQUIL' 'RSVD' /

SUMMARY   =============================================================

FOPR

FWCT

FGOR

GOPR
'PL-A'  'PL-B'  'SC-B'  'SC-C' /

GWCT
'PL-A'  'PL-B'  'SC-B'  'SC-C' /

GGOR
'PL-A'  'PL-B'  'SC-B'  'SC-C' /

GPR
'PL-A'  'PL-B'  'SC-B'  'SC-C' /

WTHP
'PA1'  'PA2'  'PA3'  'PA4'  'PB1'  'PB2'  'PB3'
'PC1'  'PC2'  'PC3'  /

FMCTP

GMCTP
'PL-A'  'PL-B'  'SC-B'  'SC-C' /

WMCTL
'PA1'  'PA2'  'PA3'  'PA4'  'PB1'  'PB2'  'PB3'
'PC1'  'PC2'  'PC3'  /

RUNSUM

SCHEDULE  =============================================================

EXTRAPMS
 3  /

DEBUG
 1  0  8*0  2  /

RPTSCHED
'PRES' 'SWAT' 'SGAS' 'RESTART=2' 'FIP=2' 'WELLS=2' 'VFPPROD=1' 'SUMMARY=2' 
'CPU=2' 'WELSPECS' 'NEWTON=2' /

NOECHO

--PRODUCTION WELL VFP TABLE   1

VFPPROD

   1     7.00000E+03   'OIL'    'WCT'    'GOR'   /

   1.00000E+02  5.00000E+02  1.00000E+03  2.00000E+03
   4.00000E+03  6.00000E+03
 /

   5.00000E+02  1.00000E+03  2.00000E+03
 /

    .00000E+00  2.00000E-01  5.00000E-01
 /

   1.00000E+00  2.00000E+00  5.00000E+00
 /

    .00000E+00
 /

   1   1   1   1   2.15704E+03  2.06116E+03  1.95409E+03  2.02292E+03
                   2.17142E+03  2.38429E+03
                 /
   2   1   1   1   2.73416E+03  2.72717E+03  2.73068E+03  2.75401E+03
                   2.84469E+03  2.99124E+03
                 /
   3   1   1   1   3.76060E+03  3.76298E+03  3.76942E+03  3.79291E+03
                   3.88088E+03  4.02263E+03
                 /

   1   2   1   1   2.33750E+03  2.22924E+03  2.15109E+03  2.23442E+03
                   2.42565E+03  2.70666E+03
                 /
   2   2   1   1   2.91255E+03  2.90620E+03  2.91467E+03  2.94932E+03
                   3.08180E+03  3.29540E+03
                 /
   3   2   1   1   3.93729E+03  3.94076E+03  3.95014E+03  3.98448E+03
                   4.11342E+03  4.32147E+03
                 /

   1   3   1   1   2.66877E+03  2.55028E+03  2.55387E+03  2.66957E+03
                   3.03390E+03  3.58331E+03
                 /
   2   3   1   1   3.24040E+03  3.24346E+03  3.26352E+03  3.34204E+03
                   3.64157E+03  4.12472E+03
                 /
   3   3   1   1   4.26167E+03  4.26935E+03  4.29032E+03  4.36783E+03
                   4.66130E+03  5.13702E+03
                 /

   1   1   2   1   1.90267E+03  1.59607E+03  1.57370E+03  1.71629E+03
                   2.05507E+03  2.46808E+03
                 /
   2   1   2   1   2.45159E+03  2.32920E+03  2.25678E+03  2.33810E+03
                   2.53203E+03  2.83299E+03
                 /
   3   1   2   1   3.46767E+03  3.47100E+03  3.48158E+03  3.52162E+03
                   3.67439E+03  3.92214E+03
                 /

   1   2   2   1   2.05586E+03  1.71318E+03  1.72214E+03  1.88245E+03
                   2.29229E+03  2.79255E+03
                 /
   2   2   2   1   2.60670E+03  2.47408E+03  2.43122E+03  2.52240E+03
                   2.77272E+03  3.16263E+03
                 /
   3   2   2   1   3.62493E+03  3.62971E+03  3.64413E+03  3.69838E+03
                   3.90510E+03  4.23999E+03
                 /

   1   3   2   1   2.35579E+03  1.99138E+03  2.09089E+03  2.30336E+03
                   2.93668E+03  3.76219E+03
                 /
   2   3   2   1   2.92539E+03  2.79072E+03  2.81670E+03  2.94765E+03
                   3.41750E+03  4.13959E+03
                 /
   3   3   2   1   3.95326E+03  3.96321E+03  3.99182E+03  4.09913E+03
                   4.50841E+03  5.17133E+03
                 /

   1   1   3   1   1.67036E+03  1.47309E+03  1.62223E+03  1.94339E+03
                   2.62021E+03  3.43166E+03
                 /
   2   1   3   1   2.26604E+03  1.95573E+03  2.06317E+03  2.23044E+03
                   2.78305E+03  3.55159E+03
                 /
   3   1   3   1   3.23466E+03  3.12163E+03  3.15021E+03  3.25859E+03
                   3.67451E+03  4.37282E+03
                 /

   1   2   3   1   1.77956E+03  1.55320E+03  1.71443E+03  2.05996E+03
                   2.83016E+03  3.78746E+03
                 /
   2   2   3   1   2.37988E+03  2.04437E+03  2.16237E+03  2.35342E+03
                   3.00013E+03  3.91473E+03
                 /
   3   2   3   1   3.34920E+03  3.22668E+03  3.26139E+03  3.39275E+03
                   3.89798E+03  4.76218E+03
                 /

   1   3   3   1   1.99529E+03  1.73785E+03  1.93435E+03  2.36596E+03
                   3.46854E+03  4.98237E+03
                 /
   2   3   3   1   2.63216E+03  2.27302E+03  2.40779E+03  2.68965E+03
                   3.65782E+03  5.13242E+03
                 /
   3   3   3   1   3.60689E+03  3.48602E+03  3.54176E+03  3.75294E+03
                   4.59168E+03  5.99662E+03
                 /

--TABLE 2  -  SUB-SEA COMPLETION FLOW-LINE

VFPPROD

   2     5.00000E+02   'OIL'    'WCT'    'GOR'   /

   1.00000E+02  5.00000E+03  1.00000E+04  1.50000E+04
   2.00000E+04
 /

   5.00000E+02  1.00000E+03  2.00000E+03
 /

    .00000E+00  2.00000E-01
 /

   1.00000E+00  2.00000E+00  5.00000E+00
 /

    .00000E+00
 /

   1   1   1   1   6.19424E+02  6.42439E+02  7.78037E+02  9.53709E+02
                   1.13775E+03
                 /
   2   1   1   1   1.12479E+03  1.14368E+03  1.19812E+03  1.29087E+03
                   1.41960E+03
                 /
   3   1   1   1   2.12657E+03  2.14737E+03  2.20396E+03  2.29520E+03
                   2.42081E+03
                 /

   1   2   1   1   6.31091E+02  6.69375E+02  8.44041E+02  1.06684E+03
                   1.26303E+03
                 /
   2   2   1   1   1.13739E+03  1.16565E+03  1.24742E+03  1.38506E+03
                   1.57398E+03
                 /
   3   2   1   1   2.13919E+03  2.16974E+03  2.25298E+03  2.38726E+03
                   2.57217E+03
                 /

   1   1   2   1   5.83339E+02  7.14916E+02  1.00306E+03  1.33195E+03
                   1.69024E+03
                 /
   2   1   2   1   1.11302E+03  1.15462E+03  1.33078E+03  1.58524E+03
                   1.89244E+03
                 /
   3   1   2   1   2.10413E+03  2.13933E+03  2.23747E+03  2.39677E+03
                   2.61612E+03
                 /

   1   2   2   1   5.92847E+02  7.51490E+02  1.09205E+03  1.48462E+03
                   1.91150E+03
                 /
   2   2   2   1   1.12453E+03  1.18326E+03  1.40792E+03  1.73475E+03
                   2.07958E+03
                 /
   3   2   2   1   2.11525E+03  2.16315E+03  2.29634E+03  2.51218E+03
                   2.80904E+03
                 /

   1   1   3   1   5.98132E+02  1.01507E+03  1.67461E+03  2.41391E+03
                   3.33074E+03
                 /
   2   1   3   1   1.07938E+03  1.31625E+03  1.83984E+03  2.53836E+03
                   3.44055E+03
                 /
   3   1   3   1   2.09702E+03  2.22285E+03  2.62127E+03  3.26416E+03
                   4.10860E+03
                 /

   1   2   3   1   6.06031E+02  1.06692E+03  1.79522E+03  2.65147E+03
                   3.74273E+03
                 /
   2   2   3   1   1.08791E+03  1.35942E+03  1.95923E+03  2.77898E+03
                   3.84785E+03
                 /
   3   2   3   1   2.10664E+03  2.26012E+03  2.74066E+03  3.51813E+03
                   4.44890E+03
                 /

-- TABLE 3  -  PLATFORM FLOW-LINE

VFPPROD

   3      .00000E+00   'OIL'    'WCT'    'GOR'   /

   1.00000E+02  5.00000E+03  1.00000E+04  1.50000E+04
   2.00000E+04  3.00000E+04
 /

   3.00000E+02  1.00000E+03  2.00000E+03
 /

    .00000E+00  2.00000E-01
 /

   1.00000E+00  2.00000E+00  5.00000E+00
 /

    .00000E+00
 /

   1   1   1   1   3.00011E+02  3.15512E+02  3.55099E+02  4.10488E+02
                   4.74854E+02  6.15904E+02
                 /
   2   1   1   1   1.00000E+03  1.00382E+03  1.01149E+03  1.02623E+03
                   1.04850E+03  1.09760E+03
                 /
   3   1   1   1   2.00000E+03  2.00255E+03  2.00927E+03  2.01994E+03
                   2.03451E+03  2.07525E+03
                 /

   1   2   1   1   3.00014E+02  3.20238E+02  3.70766E+02  4.39672E+02
                   5.18193E+02  6.87803E+02
                 /
   2   2   1   1   1.00001E+03  1.00534E+03  1.01546E+03  1.03991E+03
                   1.06668E+03  1.13253E+03
                 /
   3   2   1   1   2.00000E+03  2.00375E+03  2.01364E+03  2.02937E+03
                   2.05085E+03  2.11090E+03
                 /

   1   1   2   1   3.00023E+02  3.36123E+02  4.22776E+02  5.33253E+02
                   6.51172E+02  8.89287E+02
                 /
   2   1   2   1   1.00001E+03  1.00912E+03  1.03400E+03  1.07316E+03
                   1.12495E+03  1.25921E+03
                 /
   3   1   2   1   2.00000E+03  2.00442E+03  2.01576E+03  2.03421E+03
                   2.05963E+03  2.13112E+03
                 /

   1   2   2   1   3.00029E+02  3.44394E+02  4.47057E+02  5.75203E+02
                   7.09873E+02  9.82209E+02
                 /
   2   2   2   1   1.00001E+03  1.01204E+03  1.04462E+03  1.09547E+03
                   1.16186E+03  1.33346E+03
                 /
   3   2   2   1   2.00001E+03  2.00601E+03  2.02146E+03  2.04659E+03
                   2.08114E+03  2.17819E+03
                 /

   1   1   3   1   3.00076E+02  4.24909E+02  6.57487E+02  8.99477E+02
                   1.13281E+03  1.58693E+03
                 /
   2   1   3   1   1.00002E+03  1.03238E+03  1.11978E+03  1.24765E+03
                   1.40344E+03  1.77685E+03
                 /
   3   1   3   1   2.00001E+03  2.01691E+03  2.06475E+03  2.14265E+03
                   2.24869E+03  2.54960E+03
                 /

   1   2   3   1   3.00088E+02  4.40399E+02  6.94138E+02  9.54693E+02
                   1.20693E+03  1.71078E+03
                 /
   2   2   3   1   1.00002E+03  1.03830E+03  1.14024E+03  1.28751E+03
                   1.46573E+03  1.89631E+03
                 /
   3   2   3   1   2.00001E+03  2.02067E+03  2.07875E+03  2.17167E+03
                   2.30133E+03  2.66278E+03
                 /

ECHO

DRSDT
1E20 /

--   WELL    GROUP     LOCATION    BHP   PREF   DRAIN  BACK   SHUT/
--   NAME    NAME        I  J     DEPTH  PHAS    RAD   PRES   STOP

WELSPECS
    'PA1'   'PL-A'       1  3      1*    'OIL'  -1.0   'NO'   'SH'  /
    'PA2'   'PL-A'       3  4      1*    'OIL'  -1.0   'NO'   'SH'  /
    'PA3'   'PL-A'       2  5      1*    'OIL'  -1.0   'NO'   'SH'  /
    'PA4'   'PL-A'       1  7      1*    'OIL'  -1.0   'NO'   'SH'  /
    'PB1'   'SC-B'       4  3      1*    'OIL'  -1.0   'NO'   'SH'  /
    'PB2'   'SC-B'       5  4      1*    'OIL'  -1.0   'NO'   'SH'  /
    'PB3'   'SC-B'       6  5      1*    'OIL'  -1.0   'NO'   'SH'  /
    'PC1'   'SC-C'       7  4      1*    'OIL'  -1.0   'NO'   'SH'  /
    'PC2'   'SC-C'       8  6      1*    'OIL'  -1.0   'NO'   'SH'  /
    'PC3'   'SC-C'       9  5      1*    'OIL'  -1.0   'NO'   'SH'  /
    'IWA1'  'PL-A'       1  9      1*    'WAT'  -1.0 /
    'IWA2'  'PL-A'       2  9      1*    'WAT'  -1.0 /
    'IWA3'  'PL-A'       3  9      1*    'WAT'  -1.0 /
    'IWB1'  'SC-B'       4  9      1*    'WAT'  -1.0 /
    'IWB2'  'SC-B'       5  9      1*    'WAT'  -1.0 /
    'IWB3'  'SC-B'       6  9      1*    'WAT'  -1.0 /
    'IWC1'  'SC-C'       7  9      1*    'WAT'  -1.0 /
    'IWC2'  'SC-C'       8  9      1*    'WAT'  -1.0 /
    'IWC3'  'SC-C'       9  9      1*    'WAT'  -1.0 /
/

GRUPTREE
 'SC-B'   'PL-B'  /
 'SC-C'   'PL-B'  /
 /

--  WELL    -LOCATION-  OPEN/  SAT  CONN  BORE
--  NAME    I  J K1-K2  SHUT   TAB  FACT  DIAM

COMPDAT
   'P*'     0  0  1  3  'OPEN'  0    0.0  0.333  /
   'IW*'    0  0  2  3  'OPEN'  0    0.0  0.333  /
/

--  WELL   OPEN/  CNTL  OIL   WATER  GAS   LIQU  VOID  BHP  THP  TAB
--  NAME   SHUT   MODE  RATE  RATE   RATE  RATE  RATE            NO

WCONPROD
   'P*'   'OPEN' 'GRUP'     2*       3E4       2*      500 1000  1 /
/

--  WELL   INJ   OPEN/   CNTL   FLOW   RESV  BHP
--  NAME   TYPE  SHUT    MODE   RATE   RATE

WCONINJE
   'IW*'   'WAT' 'OPEN' 'GRUP'   2*          5500  /
/

--   WELL   MIN   MIN   MAX   MAX   MAX   WORK   END
--   NAME   OIL   GAS   WCT   GOR   WGR   OVER   RUN

WECON
     'P*'    1*    1*   0.5   5.0    1*   'CON'  'NO'  /
/

--  GROUP      CNTL   OIL   WATER  GAS   LIQU   LIMIT    AVAIL  GUID
--  NAME       MODE   RATE  RATE   RATE  RATE   ACTION   FLD    RATE

GCONPROD
   'FIELD'    'ORAT' 50000  /
   'PL-A'     'NONE'  2*          70000  30000   'RATE'  'YES' /
   'SC-B'     'NONE'  2*          70000  20000   'RATE'  'YES' /
   'SC-C'     'NONE'  2*          70000  20000   'RATE'  'YES' /
/

--  GROUP    PHASE    CNTL   SRAT VRAT REIN VREP AVAIL GUID  GRAT
--  NAME      INJ     MODE                        FLD  RATE  DEFN

GCONINJE
   'PL-A'    'WAT'   'VREP'   1*   1*   1*  0.7  /
   'SC-B'    'WAT'   'VREP'   1*   1*   1*  0.3  /
   'SC-C'    'WAT'   'VREP'   1*   1*   1*  0.5  /
/

--  GROUP   MIN   MIN   MAX   MAX   MAX   WORK   END
--  NAME    ORAT  GRAT  WCT   GOR   WGR   OVER   RUN

GECON
  'PL-A'     6*                                  'YES'  /
  'SC-*'     6*                                  'YES'  /
/

GRUPNET
 'FIELD'  500      /
 'PL-A'    1*   3  /
 'PL-B'    1*   3  /
 'SC-*'    1*   2  /
 /

WLIMTOL
 0.1  /

GCONTOL
 0.01   3  /

NETBALAN
 50  1.0  9  2*  25.0  70.0  /

TUNING
 1  50   /
 /
 /

TSTEP
 10
 90
 100
 200
/

END
