RUNSPEC
TITLE
NEW TEST DATASET

DIMENS
   10    6    3  /

RADIAL

NONNC

OIL

WATER

GAS

DISGAS

FIELD

EQLDIMS
    1  100   20    1    1 /

TABDIMS
    1    1   20   20    1   30 /

WELLDIMS
    1   18    1    1 /

AQUDIMS
    0    0    2    0    2  120 /

START
   1 'JAN' 1987  /

NSTACK
   25 /

UNIFOUT

UNIFIN

GRID     ===============================================================

NOGGF

-------- DONT PRINT OUT LAST ROW IN R-DIRECTION
BOUNDARY
         1  9  1  6  1  3  /

-- COMPLETE THE CIRCLE IN THETA-DIRECTION
-------- K1 K2 completed
COORDSYS
         1  3  'COMP'  /

OLDTRAN

-- RADIAL GRID DEFINED USING INRAD AND OUTRAD

INRAD                                            FIELD   13:54 21 OCT 87
   .10000 /

OUTRAD                                           FIELD   13:55 21 OCT 87
  500.00000 /

DTHETAV                                          FIELD   13:59 21 OCT 87
 6*60.000
/

DZ                                               FIELD   14:00 21 OCT 87
180*20
/

-- ASSUME BOTTOM LAYER CONTAINS SOME SHALE - USE DZNET

BOX                                              FIELD   14:02 21 OCT 87
   1, 10 ,   1,  6 ,   3,  3 /

DZNET                                            FIELD   14:02 21 OCT 87
60*15
/

ENDBOX

-- PERMEABILITIES

PERMR                                            FIELD   14:06 21 OCT 87
180*200
/

PERMTHT
180*200
/

PERMZ
180*20
/

PORO
180*0.2
/

TOPS
60*5000.0
/

-- MAKE SOME CELLS IN THE BOTTOM LAYER HAVE A LOW TRANSMISSIBILITY

BOX                                              FIELD   14:27 21 OCT 87
   7, 10 ,   2,  5 ,   3,  3 /

MULTR                                            FIELD   14:29 21 OCT 87
16*0.5
/

MULTTHT
16*0.5
/

ENDBOX

--RPTGRID                                          FIELD   14:31 21 OCT 87
--   1   1   1   1   1   1   1   1   1   1   1   1   1   0   0   0   0
--   0   0   0   0   0   0   0   /

EDIT     ==============================================================

BOX
  7  10  2  5  3  3  /

PORV
16*0.0
/

ENDBOX

BOX
  4   6   1   3   1   1   /

TRANR
9*0.0
/

TRANTHT
9*0.0
/

ENDBOX

PROPS    ==============================================================

STONE2

--  THESE PROPERTIES WERE COPIED FROM GASCOND.DATA
--  THEY HAVE HAD TO BE CONVERTED FROM 'METRIC' TO 'FIELD'

SWFN
0.2  0   0
0.6  0.5 0
1.0  1.0 0 /

SGFN
0      0   0
0.35   0   0
0.575 0.5  0
0.8   1.0  0  /

SOF3

0     0    0
0.01  0.0  0.0
0.8   1.0  1.0 /

PVTW
3000.0  1.03  2.83E-6    0.3  0  / ( PSI RB/STB  1/PSI CP )

ROCK
3000.0    3.66E-6     /        ( PSI 1/PSI )

DENSITY
  49.95 63.80 0.06185   /      ( LB/FT3 )

--THE OIL PVT DATA------------------------------------------------

--FOR EACH GAS/OIL RATIO (RS) VALUE (2,5...), AT LEAST ONE
--OIL PRESSURE VALUE MUST BE SPECIFIED (20.0,50.0...)
--FOR WHICH SOLUTION FORMATION VALUES AND VISCOSITIES ARE GIVEN

--THE FIRST PRESSURE VALUE IS ASSUMED TO BE THE SATURATED (BUBBLE
--POINT) PRESSURE FOR THAT RS VALUE.

--ANY SUBSEQUENT PRESSURES ARE FOR UNDERSATURATED STATES

PVTO
  0.0112    290.0 1.02   0.975   /
  0.0280    725.0 1.03   0.91    /
  0.0562   1450.0 1.04   0.83    /
  0.0842   2900.0 1.05   0.695   /
  0.1123   3625.0 1.06   0.641   /
  0.1685   4350.0 1.07   0.594   /
  0.2246   5800.0 1.08   0.51
           7250.0 1.07   0.549
          13050.0 1.06   0.74    /
  0.2808   7260.2 1.09   0.449
          13060.2 1.08   0.605   /
/

--THE GAS PVT DATA-------------------------------------------------

PVDG
 400.0  5.90  0.0130
 800.0  2.95  0.0135
1200.0  1.96  0.0140
1600.0  1.47  0.0145
2000.0  1.18  0.0150
2400.0  0.98  0.0155
2800.0  0.84  0.0160
3200.0  0.74  0.0165
3600.0  0.65  0.0170
4000.0  0.59  0.0175
4400.0  0.54  0.0180
4800.0  0.49  0.0185
5200.0  0.45  0.0190
5600.0  0.42  0.0195
/

AQUTAB
0.01  0.112
0.05  0.229
0.1   0.315
0.15  0.376
0.2   0.424
0.25  0.469
0.3   0.503
0.4   0.564
0.5   0.616
0.6   0.659
/

RPTPROPS
-- PROPS Reporting Options
-- 
/

SOLUTION =============================================================

EQUIL
4900  3000.0  5100.0  0.0  4900   0.0  0  0  -1 /

AQUFETP
   1  5100  1*  2.0E9  3.0E-5  540.96  1  /
/

AQUCT
   2  5100.0  1*  20.0   0.10  3.0E-5  2400.0  140.0  360  1  2  /
/

AQUANCON
1   1  10   1   3   3   3  'K+'  /
2   1  10   4   6   3   3  'K+'  /
/

RPTSOL                                           METRIC  12:45 14 OCT 83
-- Initialisation Print Output
-- 
'PRES' 'SOIL' 'SWAT' 'SGAS' 'RS' 'RV' 'FIP=1' 'EQUIL' 'RVVD' 'AQUCT=5' 
'FIPTR=1' 'TBLK' /

SUMMARY ==============================================================

FOPR

FWPR

FWGR

SCHEDULE =============================================================
-------- THE SCHEDULE SECTION DEFINES THE OPERATIONS TO BE SIMULATED
------------------------------------------------------------------------
-- CONTROLS ON OUTPUT AT EACH REPORT TIME
RPTSCHED
'PRES' 'SOIL' 'SWAT' 'SGAS' 'RS' 'SUMMARY=2' 'CPU=2' 'WELSPECS' 'NEWTON=2' 
/

DRSDT
1.0 /

-- WELL SPECIFICATION DATA
--
--     WELL   GROUP LOCATION  BHP   PI
--     NAME   NAME    I  J   DEPTH DEFN
WELSPECS                                         FIELD   16:32 18 JAN 85
'PRODUCER','G       ',  1,  1,5000.00,'OIL' /
/

-- COMPLETION SPECIFICATION DATA
--
--     WELL     -LOCATION- OPEN/ SAT CONN  WELL
--     NAME     I  J K1 K2 SHUT  TAB FACT  RAD
COMPDAT
    'PRODUCER'  1  1  1  3 'OPEN' 0  1*    .1   /
    'PRODUCER'  1  2  1  3 'OPEN' 0  1*    .1   /
    'PRODUCER'  1  3  1  3 'OPEN' 0  1*    .1   /
    'PRODUCER'  1  4  1  3 'OPEN' 0  1*    .1   /
    'PRODUCER'  1  5  1  3 'OPEN' 0  1*    .1   /
    'PRODUCER'  1  6  1  3 'OPEN' 0  1*    .1   /
  /

-- PRODUCTION WELL CONTROLS - OIL RATE IS SET TO 1000 BPD
--
--      WELL     OPEN/  CNTL   OIL  WATER   GAS  LIQU   RES   BHP
--      NAME     SHUT   MODE  RATE   RATE  RATE  RATE  RATE
WCONPROD
    'PRODUCER'  'OPEN' 'ORAT' 2500   4*                      2000  /
  /

-- SPECIFY UPPER LIMIT OF 1 DAY FOR NEXT TIME STEP
TUNING
 0.1 /
/
/

-- SPECIFY REPORT AT 1 DAY
TSTEP
 1.0
/

-- RESET OUTPUT CONTROLS TO GET FULL OUTPUT FOR LAST REPORT
RPTSCHED
   'PRES' 'SOIL' 'SWAT' 'SGAS' 'RS' 'RV' 'FIP=2' 'WELLS=2' 'VFPPROD=1' 'SUMMARY=2' 
'CPU=2' 'AQUCT' 'WELSPECS' 'NEWTON=2' /

END
