--=====================================================================
-- (see Eclipse manual test data set 6)
-- This is a simple LOCAL GRID REFINEMENT data set analogous to that
-- displayed in ECLIPSE100 Newsletter no. 3 ( figs 4 and 12 ).
-- A 7*7*3 grid has wells in cells (2,6,1-3) and (6,2,1-3).
-- The grid is expanded to 23*7*3 to accomodate the additional cells
-- required to refine the well cells.  More compact refinements
-- than that illustrated here are recommended in practice ( eg using
-- 2D coning within the refined cells ) but the present data has the
-- temporary advantage of immediate graphical representation in GRAF.
--=====================================================================
-- The following data should be filed in REFGRID.DATA -----------------
-- Data after the END keyword should be stored in REFGRID.FILL --------
-- The FILLED data has been included explicitly in this data set (ILR)
--=====================================================================
RUNSPEC
TITLE
 Local Grid Refinement test data set

DIMENS
    7   23    3  /

OIL

WATER

FIELD

EQLDIMS
    1    2    2    1   20 /

TABDIMS
    1    1   12   18    1   14 /

WELLDIMS
    4    4    1    4 /

START
   1 'JAN' 1990  /

NSTACK
   15 /

GRID    ===============================================================

RPTGRID   4  5  6  7  8  9 10 11 12 13 14 15 16 17
-- Report Levels for Grid Section Data
-- 
'DX' 
'DY' 
'DZ' 
'PERMX' 
'PERMY' 
'PERMZ' 
'MULTX' 
'MULTY' 
'MULTZ' 
'PORO' 
'NTG' 
'TOPS' 
'PORV' 
'DEPTH' 
'TRANX' 
'TRANY' 
'TRANZ' 
 / 
--
-- Use NEWTRAN with corner geometry
--
NEWTRAN
--
-- Include the FILLED file generated by FILL acting on REFGRID.FILL
--
SPECGRID
 7  23  3  1  F /

COORDSYS
 1  3 'INCOMP  ' /

COORD

    .0000000E+00   .0000000E+00   5000.000       .0000000E+00   .0000000E+00
    5000.000
    300.0000       .0000000E+00   5000.000       300.0000       .0000000E+00
    5000.000
    600.0000       .0000000E+00   5000.000       600.0000       .0000000E+00
    5000.000
    900.0000       .0000000E+00   5000.000       900.0000       .0000000E+00
    5000.000
    1200.000       .0000000E+00   5000.000       1200.000       .0000000E+00
    5000.000
    1500.000       .0000000E+00   5000.000       1500.000       .0000000E+00
    5000.000
    1800.000       .0000000E+00   5000.000       1800.000       .0000000E+00
    5000.000
    2100.000       .0000000E+00   5000.000       2100.000       .0000000E+00
    5000.000
    .0000000E+00   300.0000       5000.000       .0000000E+00   300.0000
    5000.000
    300.0000       300.0000       5000.000       300.0000       300.0000
    5000.000
    600.0000       300.0000       5000.000       600.0000       300.0000
    5000.000
    900.0000       300.0000       5000.000       900.0000       300.0000
    5000.000
    1200.000       300.0000       5000.000       1200.000       300.0000
    5000.000
    1500.000       300.0000       5000.000       1500.000       300.0000
    5000.000
    1800.000       300.0000       5000.000       1800.000       300.0000
    5000.000
    2100.000       300.0000       5000.000       2100.000       300.0000
    5000.000
    .0000000E+00   600.0000       5000.000       .0000000E+00   600.0000
    5000.000
    300.0000       600.0000       5000.000       300.0000       600.0000
    5000.000
    600.0000       600.0000       5000.000       600.0000       600.0000
    5000.000
    900.0000       600.0000       5000.000       900.0000       600.0000
    5000.000
    1200.000       600.0000       5000.000       1200.000       600.0000
    5000.000
    1500.000       600.0000       5000.000       1500.000       600.0000
    5000.000
    1800.000       600.0000       5000.000       1800.000       600.0000
    5000.000
    2100.000       600.0000       5000.000       2100.000       600.0000
    5000.000
    .0000000E+00   900.0000       5000.000       .0000000E+00   900.0000
    5000.000
    300.0000       900.0000       5000.000       300.0000       900.0000
    5000.000
    600.0000       900.0000       5000.000       600.0000       900.0000
    5000.000
    900.0000       900.0000       5000.000       900.0000       900.0000
    5000.000
    1200.000       900.0000       5000.000       1200.000       900.0000
    5000.000
    1500.000       900.0000       5000.000       1500.000       900.0000
    5000.000
    1800.000       900.0000       5000.000       1800.000       900.0000
    5000.000
    2100.000       900.0000       5000.000       2100.000       900.0000
    5000.000
    .0000000E+00   1200.000       5000.000       .0000000E+00   1200.000
    5000.000
    300.0000       1200.000       5000.000       300.0000       1200.000
    5000.000
    600.0000       1200.000       5000.000       600.0000       1200.000
    5000.000
    900.0000       1200.000       5000.000       900.0000       1200.000
    5000.000
    1200.000       1200.000       5000.000       1200.000       1200.000
    5000.000
    1500.000       1200.000       5000.000       1500.000       1200.000
    5000.000
    1800.000       1200.000       5000.000       1800.000       1200.000
    5000.000
    2100.000       1200.000       5000.000       2100.000       1200.000
    5000.000
    .0000000E+00   1500.000       5000.000       .0000000E+00   1500.000
    5000.000
    300.0000       1500.000       5000.000       300.0000       1500.000
    5000.000
    600.0000       1500.000       5000.000       600.0000       1500.000
    5000.000
    900.0000       1500.000       5000.000       900.0000       1500.000
    5000.000
    1200.000       1500.000       5000.000       1200.000       1500.000
    5000.000
    1500.000       1500.000       5000.000       1500.000       1500.000
    5000.000
    1800.000       1500.000       5000.000       1800.000       1500.000
    5000.000
    2100.000       1500.000       5000.000       2100.000       1500.000
    5000.000
    .0000000E+00   1800.000       5000.000       .0000000E+00   1800.000
    5000.000
    300.0000       1800.000       5000.000       300.0000       1800.000
    5000.000
    600.0000       1800.000       5000.000       600.0000       1800.000
    5000.000
    900.0000       1800.000       5000.000       900.0000       1800.000
    5000.000
    1200.000       1800.000       5000.000       1200.000       1800.000
    5000.000
    1500.000       1800.000       5000.000       1500.000       1800.000
    5000.000
    1800.000       1800.000       5000.000       1800.000       1800.000
    5000.000
    2100.000       1800.000       5000.000       2100.000       1800.000
    5000.000
    .0000000E+00   2100.000       5000.000       .0000000E+00   2100.000
    5000.000
    300.0000       2100.000       5000.000       300.0000       2100.000
    5000.000
    600.0000       2100.000       5000.000       600.0000       2100.000
    5000.000
    900.0000       2100.000       5000.000       900.0000       2100.000
    5000.000
    1200.000       2100.000       5000.000       1200.000       2100.000
    5000.000
    1500.000       2100.000       5000.000       1500.000       2100.000
    5000.000
    1800.000       2100.000       5000.000       1800.000       2100.000
    5000.000
    2100.000       2100.000       5000.000       2100.000       2100.000
    5000.000
    .0000000E+00   .0000000E+00   5000.000       .0000000E+00   .0000000E+00
    5000.000
    .0000000E+00   .0000000E+00   5000.000       .0000000E+00   .0000000E+00
    5000.000
    .0000000E+00   .0000000E+00   5000.000       .0000000E+00   .0000000E+00
    5000.000
    300.0000       1500.000       5000.000       300.0000       1500.000
    5000.000
    600.0000       1500.000       5000.000       600.0000       1500.000
    5000.000
    .0000000E+00   .0000000E+00   5000.000       .0000000E+00   .0000000E+00
    5000.000
    .0000000E+00   .0000000E+00   5000.000       .0000000E+00   .0000000E+00
    5000.000
    .0000000E+00   .0000000E+00   5000.000       .0000000E+00   .0000000E+00
    5000.000
    .0000000E+00   .0000000E+00   5000.000       .0000000E+00   .0000000E+00
    5000.000
    .0000000E+00   .0000000E+00   5000.000       .0000000E+00   .0000000E+00
    5000.000
    .0000000E+00   .0000000E+00   5000.000       .0000000E+00   .0000000E+00
    5000.000
    380.0000       1580.000       5000.000       380.0000       1580.000
    5000.000
    520.0000       1580.000       5000.000       520.0000       1580.000
    5000.000
    .0000000E+00   .0000000E+00   5000.000       .0000000E+00   .0000000E+00
    5000.000
    .0000000E+00   .0000000E+00   5000.000       .0000000E+00   .0000000E+00
    5000.000
    .0000000E+00   .0000000E+00   5000.000       .0000000E+00   .0000000E+00
    5000.000
    .0000000E+00   .0000000E+00   5000.000       .0000000E+00   .0000000E+00
    5000.000
    .0000000E+00   .0000000E+00   5000.000       .0000000E+00   .0000000E+00
    5000.000
    .0000000E+00   .0000000E+00   5000.000       .0000000E+00   .0000000E+00
    5000.000
    420.0000       1620.000       5000.000       420.0000       1620.000
    5000.000
    480.0000       1620.000       5000.000       480.0000       1620.000
    5000.000
    .0000000E+00   .0000000E+00   5000.000       .0000000E+00   .0000000E+00
    5000.000
    .0000000E+00   .0000000E+00   5000.000       .0000000E+00   .0000000E+00
    5000.000
    .0000000E+00   .0000000E+00   5000.000       .0000000E+00   .0000000E+00
    5000.000
    300.0000       1500.000       5000.000       300.0000       1500.000
    5000.000
    380.0000       1580.000       5000.000       380.0000       1580.000
    5000.000
    420.0000       1620.000       5000.000       420.0000       1620.000
    5000.000
    440.0000       1640.000       5000.000       440.0000       1640.000
    5000.000
    460.0000       1640.000       5000.000       460.0000       1640.000
    5000.000
    480.0000       1620.000       5000.000       480.0000       1620.000
    5000.000
    520.0000       1580.000       5000.000       520.0000       1580.000
    5000.000
    600.0000       1500.000       5000.000       600.0000       1500.000
    5000.000
    300.0000       1800.000       5000.000       300.0000       1800.000
    5000.000
    380.0000       1720.000       5000.000       380.0000       1720.000
    5000.000
    420.0000       1680.000       5000.000       420.0000       1680.000
    5000.000
    440.0000       1660.000       5000.000       440.0000       1660.000
    5000.000
    460.0000       1660.000       5000.000       460.0000       1660.000
    5000.000
    480.0000       1680.000       5000.000       480.0000       1680.000
    5000.000
    520.0000       1720.000       5000.000       520.0000       1720.000
    5000.000
    600.0000       1800.000       5000.000       600.0000       1800.000
    5000.000
    .0000000E+00   .0000000E+00   5000.000       .0000000E+00   .0000000E+00
    5000.000
    .0000000E+00   .0000000E+00   5000.000       .0000000E+00   .0000000E+00
    5000.000
    .0000000E+00   .0000000E+00   5000.000       .0000000E+00   .0000000E+00
    5000.000
    420.0000       1680.000       5000.000       420.0000       1680.000
    5000.000
    480.0000       1680.000       5000.000       480.0000       1680.000
    5000.000
    .0000000E+00   .0000000E+00   5000.000       .0000000E+00   .0000000E+00
    5000.000
    .0000000E+00   .0000000E+00   5000.000       .0000000E+00   .0000000E+00
    5000.000
    .0000000E+00   .0000000E+00   5000.000       .0000000E+00   .0000000E+00
    5000.000
    .0000000E+00   .0000000E+00   5000.000       .0000000E+00   .0000000E+00
    5000.000
    .0000000E+00   .0000000E+00   5000.000       .0000000E+00   .0000000E+00
    5000.000
    .0000000E+00   .0000000E+00   5000.000       .0000000E+00   .0000000E+00
    5000.000
    380.0000       1720.000       5000.000       380.0000       1720.000
    5000.000
    520.0000       1720.000       5000.000       520.0000       1720.000
    5000.000
    .0000000E+00   .0000000E+00   5000.000       .0000000E+00   .0000000E+00
    5000.000
    .0000000E+00   .0000000E+00   5000.000       .0000000E+00   .0000000E+00
    5000.000
    .0000000E+00   .0000000E+00   5000.000       .0000000E+00   .0000000E+00
    5000.000
    .0000000E+00   .0000000E+00   5000.000       .0000000E+00   .0000000E+00
    5000.000
    .0000000E+00   .0000000E+00   5000.000       .0000000E+00   .0000000E+00
    5000.000
    .0000000E+00   .0000000E+00   5000.000       .0000000E+00   .0000000E+00
    5000.000
    300.0000       1800.000       5000.000       300.0000       1800.000
    5000.000
    600.0000       1800.000       5000.000       600.0000       1800.000
    5000.000
    .0000000E+00   .0000000E+00   5000.000       .0000000E+00   .0000000E+00
    5000.000
    .0000000E+00   .0000000E+00   5000.000       .0000000E+00   .0000000E+00
    5000.000
    .0000000E+00   .0000000E+00   5000.000       .0000000E+00   .0000000E+00
    5000.000
    .0000000E+00   .0000000E+00   5000.000       .0000000E+00   .0000000E+00
    5000.000
    .0000000E+00   .0000000E+00   5000.000       .0000000E+00   .0000000E+00
    5000.000
    .0000000E+00   .0000000E+00   5000.000       .0000000E+00   .0000000E+00
    5000.000
    1500.000       300.0000       5000.000       1500.000       300.0000
    5000.000
    1800.000       300.0000       5000.000       1800.000       300.0000
    5000.000
    .0000000E+00   .0000000E+00   5000.000       .0000000E+00   .0000000E+00
    5000.000
    .0000000E+00   .0000000E+00   5000.000       .0000000E+00   .0000000E+00
    5000.000
    .0000000E+00   .0000000E+00   5000.000       .0000000E+00   .0000000E+00
    5000.000
    .0000000E+00   .0000000E+00   5000.000       .0000000E+00   .0000000E+00
    5000.000
    .0000000E+00   .0000000E+00   5000.000       .0000000E+00   .0000000E+00
    5000.000
    .0000000E+00   .0000000E+00   5000.000       .0000000E+00   .0000000E+00
    5000.000
    1580.000       380.0000       5000.000       1580.000       380.0000
    5000.000
    1720.000       380.0000       5000.000       1720.000       380.0000
    5000.000
    .0000000E+00   .0000000E+00   5000.000       .0000000E+00   .0000000E+00
    5000.000
    .0000000E+00   .0000000E+00   5000.000       .0000000E+00   .0000000E+00
    5000.000
    .0000000E+00   .0000000E+00   5000.000       .0000000E+00   .0000000E+00
    5000.000
    .0000000E+00   .0000000E+00   5000.000       .0000000E+00   .0000000E+00
    5000.000
    .0000000E+00   .0000000E+00   5000.000       .0000000E+00   .0000000E+00
    5000.000
    .0000000E+00   .0000000E+00   5000.000       .0000000E+00   .0000000E+00
    5000.000
    1620.000       420.0000       5000.000       1620.000       420.0000
    5000.000
    1680.000       420.0000       5000.000       1680.000       420.0000
    5000.000
    .0000000E+00   .0000000E+00   5000.000       .0000000E+00   .0000000E+00
    5000.000
    .0000000E+00   .0000000E+00   5000.000       .0000000E+00   .0000000E+00
    5000.000
    .0000000E+00   .0000000E+00   5000.000       .0000000E+00   .0000000E+00
    5000.000
    1500.000       300.0000       5000.000       1500.000       300.0000
    5000.000
    1580.000       380.0000       5000.000       1580.000       380.0000
    5000.000
    1620.000       420.0000       5000.000       1620.000       420.0000
    5000.000
    1640.000       440.0000       5000.000       1640.000       440.0000
    5000.000
    1660.000       440.0000       5000.000       1660.000       440.0000
    5000.000
    1680.000       420.0000       5000.000       1680.000       420.0000
    5000.000
    1720.000       380.0000       5000.000       1720.000       380.0000
    5000.000
    1800.000       300.0000       5000.000       1800.000       300.0000
    5000.000
    1500.000       600.0000       5000.000       1500.000       600.0000
    5000.000
    1580.000       520.0000       5000.000       1580.000       520.0000
    5000.000
    1620.000       480.0000       5000.000       1620.000       480.0000
    5000.000
    1640.000       460.0000       5000.000       1640.000       460.0000
    5000.000
    1660.000       460.0000       5000.000       1660.000       460.0000
    5000.000
    1680.000       480.0000       5000.000       1680.000       480.0000
    5000.000
    1720.000       520.0000       5000.000       1720.000       520.0000
    5000.000
    1800.000       600.0000       5000.000       1800.000       600.0000
    5000.000
    .0000000E+00   .0000000E+00   5000.000       .0000000E+00   .0000000E+00
    5000.000
    .0000000E+00   .0000000E+00   5000.000       .0000000E+00   .0000000E+00
    5000.000
    .0000000E+00   .0000000E+00   5000.000       .0000000E+00   .0000000E+00
    5000.000
    1620.000       480.0000       5000.000       1620.000       480.0000
    5000.000
    1680.000       480.0000       5000.000       1680.000       480.0000
    5000.000
    .0000000E+00   .0000000E+00   5000.000       .0000000E+00   .0000000E+00
    5000.000
    .0000000E+00   .0000000E+00   5000.000       .0000000E+00   .0000000E+00
    5000.000
    .0000000E+00   .0000000E+00   5000.000       .0000000E+00   .0000000E+00
    5000.000
    .0000000E+00   .0000000E+00   5000.000       .0000000E+00   .0000000E+00
    5000.000
    .0000000E+00   .0000000E+00   5000.000       .0000000E+00   .0000000E+00
    5000.000
    .0000000E+00   .0000000E+00   5000.000       .0000000E+00   .0000000E+00
    5000.000
    1580.000       520.0000       5000.000       1580.000       520.0000
    5000.000
    1720.000       520.0000       5000.000       1720.000       520.0000
    5000.000
    .0000000E+00   .0000000E+00   5000.000       .0000000E+00   .0000000E+00
    5000.000
    .0000000E+00   .0000000E+00   5000.000       .0000000E+00   .0000000E+00
    5000.000
    .0000000E+00   .0000000E+00   5000.000       .0000000E+00   .0000000E+00
    5000.000
    .0000000E+00   .0000000E+00   5000.000       .0000000E+00   .0000000E+00
    5000.000
    .0000000E+00   .0000000E+00   5000.000       .0000000E+00   .0000000E+00
    5000.000
    .0000000E+00   .0000000E+00   5000.000       .0000000E+00   .0000000E+00
    5000.000
    1500.000       600.0000       5000.000       1500.000       600.0000
    5000.000
    1800.000       600.0000       5000.000       1800.000       600.0000
    5000.000
    .0000000E+00   .0000000E+00   5000.000       .0000000E+00   .0000000E+00
    5000.000
    .0000000E+00   .0000000E+00   5000.000       .0000000E+00   .0000000E+00
    5000.000
    .0000000E+00   .0000000E+00   5000.000       .0000000E+00   .0000000E+00
    5000.000
 /

ZCORN

    5000.000       5000.000       5000.000       5000.000       5000.000
    5000.000       5000.000       5000.000       5000.000       5000.000
    5000.000       5000.000       5000.000       5000.000
    5000.000       5000.000       5000.000       5000.000       5000.000
    5000.000       5000.000       5000.000       5000.000       5000.000
    5000.000       5000.000       5000.000       5000.000
    5000.000       5000.000       5000.000       5000.000       5000.000
    5000.000       5000.000       5000.000       5000.000       5000.000
    5000.000       5000.000       5000.000       5000.000
    5000.000       5000.000       5000.000       5000.000       5000.000
    5000.000       5000.000       5000.000       5000.000       5000.000
    5000.000       5000.000       5000.000       5000.000
    5000.000       5000.000       5000.000       5000.000       5000.000
    5000.000       5000.000       5000.000       5000.000       5000.000
    5000.000       5000.000       5000.000       5000.000
    5000.000       5000.000       5000.000       5000.000       5000.000
    5000.000       5000.000       5000.000       5000.000       5000.000
    5000.000       5000.000       5000.000       5000.000
    5000.000       5000.000       5000.000       5000.000       5000.000
    5000.000       5000.000       5000.000       5000.000       5000.000
    5000.000       5000.000       5000.000       5000.000
    5000.000       5000.000       5000.000       5000.000       5000.000
    5000.000       5000.000       5000.000       5000.000       5000.000
    5000.000       5000.000       5000.000       5000.000
    5000.000       5000.000       5000.000       5000.000       5000.000
    5000.000       5000.000       5000.000       5000.000       5000.000
    5000.000       5000.000       5000.000       5000.000
    5000.000       5000.000       5000.000       5000.000       5000.000
    5000.000       5000.000       5000.000       5000.000       5000.000
    5000.000       5000.000       5000.000       5000.000
    5000.000       5000.000       5000.000       5000.000       5000.000
    5000.000       5000.000       5000.000       5000.000       5000.000
    5000.000       5000.000       5000.000       5000.000
    5000.000       5000.000       5000.000       5000.000       5000.000
    5000.000       5000.000       5000.000       5000.000       5000.000
    5000.000       5000.000       5000.000       5000.000
    5000.000       5000.000       5000.000       5000.000       5000.000
    5000.000       5000.000       5000.000       5000.000       5000.000
    5000.000       5000.000       5000.000       5000.000
    5000.000       5000.000       5000.000       5000.000       5000.000
    5000.000       5000.000       5000.000       5000.000       5000.000
    5000.000       5000.000       5000.000       5000.000
    5000.000       5000.000       5000.000       5000.000       5000.000
    5000.000       5000.000       5000.000       5000.000       5000.000
    5000.000       5000.000       5000.000       5000.000
    5000.000       5000.000       5000.000       5000.000       5000.000
    5000.000       5000.000       5000.000       5000.000       5000.000
    5000.000       5000.000       5000.000       5000.000
    5000.000       5000.000       5000.000       5000.000       5000.000
    5000.000       5000.000       5000.000       5000.000       5000.000
    5000.000       5000.000       5000.000       5000.000
    5000.000       5000.000       5000.000       5000.000       5000.000
    5000.000       5000.000       5000.000       5000.000       5000.000
    5000.000       5000.000       5000.000       5000.000
    5000.000       5000.000       5000.000       5000.000       5000.000
    5000.000       5000.000       5000.000       5000.000       5000.000
    5000.000       5000.000       5000.000       5000.000
    5000.000       5000.000       5000.000       5000.000       5000.000
    5000.000       5000.000       5000.000       5000.000       5000.000
    5000.000       5000.000       5000.000       5000.000
    5000.000       5000.000       5000.000       5000.000       5000.000
    5000.000       5000.000       5000.000       5000.000       5000.000
    5000.000       5000.000       5000.000       5000.000
    5000.000       5000.000       5000.000       5000.000       5000.000
    5000.000       5000.000       5000.000       5000.000       5000.000
    5000.000       5000.000       5000.000       5000.000
    5000.000       5000.000       5000.000       5000.000       5000.000
    5000.000       5000.000       5000.000       5000.000       5000.000
    5000.000       5000.000       5000.000       5000.000
    5000.000       5000.000       5000.000       5000.000       5000.000
    5000.000       5000.000       5000.000       5000.000       5000.000
    5000.000       5000.000       5000.000       5000.000
    5000.000       5000.000       5000.000       5000.000       5000.000
    5000.000       5000.000       5000.000       5000.000       5000.000
    5000.000       5000.000       5000.000       5000.000
    5000.000       5000.000       5000.000       5000.000       5000.000
    5000.000       5000.000       5000.000       5000.000       5000.000
    5000.000       5000.000       5000.000       5000.000
    5000.000       5000.000       5000.000       5000.000       5000.000
    5000.000       5000.000       5000.000       5000.000       5000.000
    5000.000       5000.000       5000.000       5000.000
    5000.000       5000.000       5000.000       5000.000       5000.000
    5000.000       5000.000       5000.000       5000.000       5000.000
    5000.000       5000.000       5000.000       5000.000
    5000.000       5000.000       5000.000       5000.000       5000.000
    5000.000       5000.000       5000.000       5000.000       5000.000
    5000.000       5000.000       5000.000       5000.000
    5000.000       5000.000       5000.000       5000.000       5000.000
    5000.000       5000.000       5000.000       5000.000       5000.000
    5000.000       5000.000       5000.000       5000.000
    5000.000       5000.000       5000.000       5000.000       5000.000
    5000.000       5000.000       5000.000       5000.000       5000.000
    5000.000       5000.000       5000.000       5000.000
    5000.000       5000.000       5000.000       5000.000       5000.000
    5000.000       5000.000       5000.000       5000.000       5000.000
    5000.000       5000.000       5000.000       5000.000
    5000.000       5000.000       5000.000       5000.000       5000.000
    5000.000       5000.000       5000.000       5000.000       5000.000
    5000.000       5000.000       5000.000       5000.000
    5000.000       5000.000       5000.000       5000.000       5000.000
    5000.000       5000.000       5000.000       5000.000       5000.000
    5000.000       5000.000       5000.000       5000.000
    5000.000       5000.000       5000.000       5000.000       5000.000
    5000.000       5000.000       5000.000       5000.000       5000.000
    5000.000       5000.000       5000.000       5000.000
    5000.000       5000.000       5000.000       5000.000       5000.000
    5000.000       5000.000       5000.000       5000.000       5000.000
    5000.000       5000.000       5000.000       5000.000
    5000.000       5000.000       5000.000       5000.000       5000.000
    5000.000       5000.000       5000.000       5000.000       5000.000
    5000.000       5000.000       5000.000       5000.000
    5000.000       5000.000       5000.000       5000.000       5000.000
    5000.000       5000.000       5000.000       5000.000       5000.000
    5000.000       5000.000       5000.000       5000.000
    5000.000       5000.000       5000.000       5000.000       5000.000
    5000.000       5000.000       5000.000       5000.000       5000.000
    5000.000       5000.000       5000.000       5000.000
    5000.000       5000.000       5000.000       5000.000       5000.000
    5000.000       5000.000       5000.000       5000.000       5000.000
    5000.000       5000.000       5000.000       5000.000
    5000.000       5000.000       5000.000       5000.000       5000.000
    5000.000       5000.000       5000.000       5000.000       5000.000
    5000.000       5000.000       5000.000       5000.000
    5000.000       5000.000       5000.000       5000.000       5000.000
    5000.000       5000.000       5000.000       5000.000       5000.000
    5000.000       5000.000       5000.000       5000.000
    5000.000       5000.000       5000.000       5000.000       5000.000
    5000.000       5000.000       5000.000       5000.000       5000.000
    5000.000       5000.000       5000.000       5000.000
    5000.000       5000.000       5000.000       5000.000       5000.000
    5000.000       5000.000       5000.000       5000.000       5000.000
    5000.000       5000.000       5000.000       5000.000
    5000.000       5000.000       5000.000       5000.000       5000.000
    5000.000       5000.000       5000.000       5000.000       5000.000
    5000.000       5000.000       5000.000       5000.000
    5000.000       5000.000       5000.000       5000.000       5000.000
    5000.000       5000.000       5000.000       5000.000       5000.000
    5000.000       5000.000       5000.000       5000.000

    5010.000       5010.000       5010.000       5010.000       5010.000
    5010.000       5010.000       5010.000       5010.000       5010.000
    5010.000       5010.000       5010.000       5010.000
    5010.000       5010.000       5010.000       5010.000       5010.000
    5010.000       5010.000       5010.000       5010.000       5010.000
    5010.000       5010.000       5010.000       5010.000
    5010.000       5010.000       5010.000       5010.000       5010.000
    5010.000       5010.000       5010.000       5010.000       5010.000
    5010.000       5010.000       5010.000       5010.000
    5010.000       5010.000       5010.000       5010.000       5010.000
    5010.000       5010.000       5010.000       5010.000       5010.000
    5010.000       5010.000       5010.000       5010.000
    5010.000       5010.000       5010.000       5010.000       5010.000
    5010.000       5010.000       5010.000       5010.000       5010.000
    5010.000       5010.000       5010.000       5010.000
    5010.000       5010.000       5010.000       5010.000       5010.000
    5010.000       5010.000       5010.000       5010.000       5010.000
    5010.000       5010.000       5010.000       5010.000
    5010.000       5010.000       5010.000       5010.000       5010.000
    5010.000       5010.000       5010.000       5010.000       5010.000