-- =====================================================================
-- A 5000 3D3P PROBLEM DEMONSTRATING THE SCALE DEPOSITION MODEL
-- =====================================================================
--DEBUG
--1 1 1 1 1 1 1 1 1 1
--1 1 1 1 1 1 1 1 1 1
--1 1 1 1 1 1 1 1 5 1 /
RUNSPEC
TITLE
   USE OF WATER TRACER TO DENOTE SEA WATER FRACTION IN SCALE DEPOSITION MODEL

DIMENS
   30   34    5  /

NONNC

OIL

WATER

GAS

DISGAS

FMTOUT

FIELD

EQLDIMS
    1  100   10    1    1 /

TABDIMS
    1    1   16   12    1   12 /

TRACERS
0 1 0 /

RPTRUNSP

SCDPDIMS
   2     4    3   5  /

WELLDIMS
   24    4    1   24 /

NUPCOL
    4 /

START
   1 'JAN' 1986  /

NSTACK
   24 /

GRID    ================================================================

NOGGF

--     ARRAY  VALUE     ------- BOX ------

EQUALS
      'DX'     700      /
      'DY'     700      /
      'PORO'  0.2       /
      'PERMX' 500       /
      'TOPS'  5000      1  30  1  34  1  1  /

      'DZ'    50        1  30  1  34  1  4  /
      'DZ'   100        1  30  1  34  5  5  /

      'PORO' 0.0       29  30  1  34  1  1 /
      'PORO' 0.0       28  28  1  16  1  1 /
      'PORO' 0.0       28  28  19 34  1  1 /

/       EQUALS IS TERMINATED BY A NULL RECORD

-- THE Y AND Z DIRECTION PERMEABILITIES ARE COPIED FROM PERMX
--    SOURCE  DESTINATION  ------- BOX ------
COPY
      'PERMX'    'PERMY'   /
      'PERMX'    'PERMZ'   /
/

MULTIPLY
  'PERMZ' 0.1 /
  /

--DEBUG

--1 5*0 1 /
RPTGRID                                          FIELD   00:41 16 SEP 85
  -- Report Levels for Grid Section Data
-- 
'DZ' 
   /

PROPS   ***************************************************************


TRACER
'WTR' 'WAT' /
/

SWFN
    .25       .00       .0
    .75       .80       .0
   1.0       1.0        .0
  /

SOF3
    .00       .00    .00
    .25       .00    .00
    .75      0.8     .80
  /

SGFN
    .00       .00    .0
    .05       .00    .0
    .75      1.00    .0
  /

RPTPROPS
   /

DENSITY
        49.94    62.43    0.061    /

ROCK
        4000   4.0E-6   /

PVTW
        4000   1.00    3.0E-6     0.50   0   /

PVTO
0.165   400  1.012   .40  /
0.335   800  1.0255  .39  /
0.500  1200  1.038   .38  /
0.665  1600  1.051   .37  /
0.828  2000  1.063   .36  /
0.985  2400  1.075   .35  /
1.130  2800  1.087   .34
       3200  1.080   .35
       3600  1.074   .36
       4000  1.068   .37
       4400  1.062   .38  /
/

PVDG
 400  5.90  0.013
 800  2.95  0.0135
1200  1.96  0.014
1600  1.47  0.0145
2000  1.18  0.015
2400  0.98  0.0155
2800  0.84  0.016
3200  0.74  0.0165
3600  0.65  0.017
4000  0.56  0.0175
4400  0.51  0.018
/

REGIONS    =============================================================


-- TRACER INITIALISATION REGION IS DEFINED FOR TRACER 'WTR'

TNUMFWTR
 5100*1 /

SOLUTION  *************************************************************

EQUIL      1 TABLES   10 NODES IN EACH           FIELD   23:34 15 SEP 85
  5040.0 3600.00 5200.00  .00000 4040.00  .00000     1      0       0 /

RSVD
4000 1.13
6000 1.13 /

-- INITIALISE TRACER TO ZERO THROUGHOUT RESERVOIR (NO SEA WATER)

TVDPFWTR
4000.0   0.0
6000.0   0.0 /


RPTSOL                                           FIELD   00:42 16 SEP 85
   -- Initialisation Print Output
   -- 
'FIPTR=1' 'TBLK' /

SUMMARY ================================================================
-------- THIS SECTION SPECIFIES DATA TO BE WRITTEN TO THE SUMMARY FILES
-------- AND WHICH MAY LATER BE USED WITH THE ECLIPSE GRAPHICS PACKAGE
------------------------------------------------------------------------

CWFR
'P' 2  3  3 /
'P' 2  3  4 /
/

-- SCALE DEPOSITED (CUMULATIVE)

CDSM
'P' 2  3  3 /
'P' 2  3  4 /
/

-- SCALE DEPOSITED PER UNIT PERFORATION LENGTH (CUMULATIVE)

CDSML
'P' 2  3  3 /
'P' 2  3  4 /
/

-- SCALE DAMAGE (MULTIPLICATIVE FACTOR AFFECTING CONNECTION PI)

CDSF
'P' 2  3  3 /
'P' 2  3  4 /
/

RPTSMRY
  1  /

SCHEDULE ===============================================================

DRSDT
0.0 /

RPTSCHED
'PRES' 'SWAT' 'SGAS' 'WELLS=1' 'SUMMARY=2' 'CPU=2' 'WELSPECS' 'NEWTON=2' 
'TBLK' /

WELSPECS
    'P'      'G'    2  3    1*   'OIL'  /
    'I'      'G'    2  2    1*   'WAT'  /
/

COMPDAT
    'P' 2*  3  4 'OPEN' 0   -1   0.5  /
    'I' 2*  3  3 'OPEN' 0   -1   0.5  /
    /

WCONPROD
     'P' 'OPEN' 'ORAT' 10000  4*  1000 /
  /

WCONINJE
     'I' 'WAT' 'OPEN' 'RATE' 2000  /
  /

-- WATER INJECTOR INJECTS PURE SEA WATER - TRACER AT 1.0

WTRACER
     'I'  'WTR' 1.0 /
/

-- ASSIGN DEPOSITION AND DAMAMGE TABLES TO PRODUCER

WSCTAB
     'P'  1   1  /
/

-- DEPOSITION TABLE

SCDPTAB
0.0 0
0.3 200
0.6 300
0.9 400  /
/

-- DAMAGE TABLE

SCDATAB
5    0.95
100  0.90
500  0.80
1000 0.70
5000 0.50 /
/
/

-- ASSOCIATE NAMED TRACER WITH SEA WATER FRACTION

SCDPTRAC
'WTR' /


TSTEP
  200.0 /

TSTEP
  200.0 /

TSTEP
  200.0 /

END     ================================================================


