RUNSPEC
TITLE
 Surfactant model test case.

DIMENS
   10   10    3  /

OIL

WATER

SURFACT

METRIC

TABDIMS
    2    1   20   20    1   20 /

WELLDIMS
    2    3    1    2 /

GASFIELD
  'YES'  /

START
   1 'MAY' 1990  /

NSTACK
    8 /

GRID      ==============================================================

PSEUDO

DXV
  10*50   /
DYV
  10*50  /
DZ
 100*0.58 100*0.84 100*0.47  /

PERMX
  100*4500 100*3300 100*2400 /

COPY
 'PERMX' 'PERMY' 1 10   1 10  1 3 /
/

PERMZ
  100*1050 100*1800 100*500 /

PORO
 300*0.25 /

TOPS
 100*2600 /


RPTGRID
  /


PROPS     ==============================================================


SWFN
    .145 .0000 .75
    .220 .0001 .05
    .270 .0004 1*
    .320 .009  1*
    .365 .018  1*
    .438 .043  1*
    .510 .082  1*
    .558 .118  1*
    .631 .187  -.05
    .703 .270  -.25
    .752 .310  -.50
    .795 .370  -1.50
/
    0.0    0.0   0.0
    1.0    1.0   0.0
/

SOF2       1 TABLES   20 NODES IN EACH           FIELD   13:34  5 MAY 85
    .205 .000
    .250 .00006
    .300 .0009
    .370 .008
    .440 .027
    .490 .052
    .560 .120
    .635 .228
    .683 .334
    .730 .470
    .780 .644
    .855 1.00
/
    0.0    0.0
    1.0    1.0
/

PVTW
  270 1.030 4.6E-5 0.34 0.0  /

PVDO
  200    1.0     0.47
  280    0.999   0.47
  300    0.998   0.47
/

ROCK
 270 .3E-5 /

DENSITY
 850. 1000. 10. /

SURFVISC
 0.0    0.34
30.     5.0  /

SURFADS
 0.0     0.0000
 1.0     0.0005
30.0     0.0005  /

 0.0     0.0000
 1.0     0.0005
30.0     0.0005  /

SURFST
 0.0    0.05
 1.0    1.0E-6
 30.0   1.0E-6  /

SURFCAPD
  -9    0.0
  -4.5  0.0
  -2    1.0
  10    1.0 /

  -9    0.0
  -4.5  0.0
  -2    1.0
  10    1.0 /


SURFROCK
 1  2650 /
 2  2650 /

RPTPROPS
    -- PROPS Reporting Options
-- 
'SURFVISC' 
 /

REGIONS    =============================================================

SATNUM
 300*1 /

SURFNUM
 300*2 /

RPTREGS
  /

SOLUTION   =============================================================


EQUIL
2600 270 2700 /

RPTSOL
-- 
-- Initialisation Print Output
-- 
'PRES' 'SOIL' 'SWAT' 'RESTART=1' 'OILAPI' 'FIPTR=2' 'TBLK' 'FIPPLY=2' 'SURFBLK' 
'FIPSURF=2' /

SUMMARY    ===========================================================

WBHP
/
FWIR
FOPR
FOPT
FTPRSUR
FTPTSUR
FTIRSUR
FTITSUR
BTCNFSUR
 1 1 1 /
 2 2 1 /
 3 3 1 /
 4 4 1 /
 5 5 1 /
 5 5 2 /
 5 5 3 /
 6 6 1 /
 7 7 1 /
 8 8 1 /
 9 9 1 /
10 10 1 /
10 10 2 /
10 10 3 /
/
BOSAT
 1 1 1 /
 2 2 1 /
 3 3 1 /
 4 4 1 /
 5 5 1 /
 5 5 2 /
 5 5 3 /
 6 6 1 /
 7 7 1 /
 8 8 1 /
 9 9 1 /
10 10 1 /
10 10 2 /
10 10 3 /
/
WTPRSUR
'OP' /

BTADSUR
 5 5 1 /
/

RUNSUM

SCHEDULE   ===========================================================

RPTSCHED                                         FIELD   16:55 18 APR 86
'PRES' 'SOIL' 'SWAT' 'RESTART=2' 'FIP=2' 'WELLS=2' 'SUMMARY=2' 'CPU=2' 
'NEWTON=2' 'OILAPI' 'FIPTR=2' 'TBLK' 'FIPSALT=2' 'TUNING' 'SURFBLK' 'SURFADS' 
'FIPSURF=2' /

WELSPECS
'OP'  'G'   10 10  2600  'OIL'  /
'INJ' 'G'   1  1   2600  'WAT'  /
/
COMPDAT
'OP      '   10  10  1   3 'OPEN'   0  .0   157E-3 /
'INJ     '   1   1   1   3 'OPEN'   0  .0   157E-3 /
/

WCONPROD
'OP' 'OPEN' 'RESV' 4* 500 0.0 4* /
/

WCONINJE
'INJ' 'WAT' 'OPEN' 'RESV' 1* 500  /
/

TSTEP
 3*50 /

WSURFACT
 'INJ'  30.0 /
 /

TSTEP
 50 /

WSURFACT
 'INJ'  30.0 /
 /

TSTEP
  2*50
/

END
