-- =====================================================================
--
-- CROSS-SECTION TRACER TRACKING EXAMPLE
--
-- THIS IS A 15 BY 9 OIL-WATER CROSS-SECTION PROBLEM. THE RESERVOIR
-- INITIALLY CONTAINS OIL AND CONNATE WATER. THE PROBLEM CONTAINS TWO
-- WATER INJECTION WELLS AND A SINGLE PRODUCTION WELL, EACH OPERATING
-- AT CONSTANT RATE. A FETKOVICH AQUIFER IS CONNECTED TO A GRID CELL
-- ON THE BOTTOM LAYER OF THE CROSS-SECTION.
--
-- THE PURPOSE OF THE PROBLEM IS TO TRACE THE MOVEMENT OF A NUMBER OF
-- FLUID COMPONENTS THROUGH THE RESERVOIR GRID. 13 TRACER FLUIDS ARE
-- TRACKED DURING THE SIMULATION AND THESE ARE:
--
--       (1) : 'IW1' :  WATER INJECTED THROUGH THE INJECTOR 'I1'
--       (2) : 'IW2' :  WATER INJECTED THROUGH THE INJECTOR 'I2'
--       (3) : 'CNW' :  INITIAL CONNATE WATER IN THE RESERVOIR
--       (4) : 'AQW' :  WATER INFLUX THROUGH THE FETKOVICH AQUIFER
--       (5) : 'OL1' :  OIL INITIALLY PRESENT IN LAYER 1 OF THE GRID
--       (6) : 'OL2' :  OIL INITIALLY PRESENT IN LAYER 2 OF THE GRID
--       (7) : 'OL3' :  OIL INITIALLY PRESENT IN LAYER 3 OF THE GRID
--       (8) : 'OL4' :  OIL INITIALLY PRESENT IN LAYER 4 OF THE GRID
--       (9) : 'OL5' :  OIL INITIALLY PRESENT IN LAYER 5 OF THE GRID
--       (10): 'OL6' :  OIL INITIALLY PRESENT IN LAYER 6 OF THE GRID
--       (11): 'OL7' :  OIL INITIALLY PRESENT IN LAYER 7 OF THE GRID
--       (12): 'OL8' :  OIL INITIALLY PRESENT IN LAYER 8 OF THE GRID
--       (13): 'OL9' :  OIL INITIALLY PRESENT IN LAYER 9 OF THE GRID
--
-- TRACERS 'IW1' AND 'IW2' WILL BE INITIALISED USING THE DEPTH TABLE
-- AND TRACER REGION METHOD. THE REMAINING TRACERS ARE INITIALISED
-- USING ENUMERATION.
--
-- =====================================================================
--
-- IN THE RUNSPEC SECTION, THE TRACER TRACKING OPTION IS REQUESTED BY
-- SETTING THE PARAMETERS NOTRAC,NWTRAC,NGTRAC IN RECORD NUMBER 6.
-- THE NUMBER OF INITIAL TRACER CONCENTRATION VS DEPTH TABLES AND THE
-- MAXIMUM NUMBER OF NODES IN EACH TABLE ARE SET USING THE PARAMETERS
-- NSTRVD,NTTRVD IN RECORD NUMBER 14.
--
RUNSPEC
TITLE
    CROSS-SECTION TRACER TRACKING TEST

DIMENS
   15    1    9  /

OIL

WATER

FIELD

EQLDIMS
    1  100   20    2    2 /

TRACERS
    9    4    0    0 'NODIFF' /

TABDIMS
    1    1   20   20    2   20 /

REGDIMS
    2    1    0    0  /

WELLDIMS
   10   10    1   10 /

AQUDIMS
    0    0    0    0    1    1 /

START
   1 'JAN' 1983  /

NSTACK
    8 /

GRID      ==============================================================

DX
  135*1000.0 /

DY
  135*200.0 /

DZ
  135*50.0 /

TOPS
  15*4000.0 /

PORO
  15*0.1  15*0.12  15*0.11  15*0.09  15*0.13
  15*0.08 15*0.13  15*0.11  15*0.14           /

PERMX
  15*50.0
  15*25.0
  15*40.0
  15*1000.0
  15*50.0
  15*100.0
  15*20.0
  15*90.0
  15*27.0  /


PERMZ
  15*50.0
  15*25.0
  15*80.0
  15*1000.0
  15*50.0
  15*40.0
  15*80.0
  15*90.0
  15*20.0   /

PROPS     ==============================================================

SWFN
    .2     .0     .0
    .5     .2     .0
    .85   1.0     .0
/

SOF2
    .2     .0
    .8    1.0
/

PVTW
  .0  1.0  3.03E-06  .5  0.0 /

PVDO
  .0     1.0     2.0
 8000.0   .92    2.0
/

ROCK
 4000.0         .30E-05 /

DENSITY
 52.0000  64.0000   .04400 /

-- TRACER NAMES AND THEIR ASSOCIATED STOCK TANK PHASES ARE DEFINED USING
-- THE TRACER KEYWORD

TRACER
 'IW1' 'WAT' /
 'IW2' 'WAT' /
 'CNW' 'WAT' /
 'AQW' 'WAT' /
 'OL1' 'OIL' /
 'OL2' 'OIL' /
 'OL3' 'OIL' /
 'OL4' 'OIL' /
 'OL5' 'OIL' /
 'OL6' 'OIL' /
 'OL7' 'OIL' /
 'OL8' 'OIL' /
 'OL9' 'OIL' /
 /

-- ECHO TRACER NAMES AND PHASES USING ITEM 10 IN THE RPTPROPS KEYWORD

RPTPROPS
-- PROPS Reporting Options
-- 
'TRACER' 
 /

REGIONS    =============================================================

SATNUM
 135*1 /
FIPNUM
 100*1 35*2 /

-- TRACER INITIALISATION REGIONS ARE DEFINED FOR TRACERS 'IW1' AND 'IW2'

TNUMFIW1
 135*1 /

TNUMFIW2
 135*1 /

-- TRACER REGION NUMBERS ARE OUTPUT USING ITEM 20 IN THE RPTREGS KEYWORD

RPTREGS
 -- Controls on output from regions section
-- 
'TNUM' 
 /

SOLUTION   =============================================================

EQUIL
 4000  4000  6000  0   0   0   0   0   0  /

AQUFET
4425.0  4200.00  1.0E8  1.0E-5  500.0  1  15 15  1  1  9  9  'K+' /

-- INITIALISE THE TRACER 'AQW' IN THE FETKOVICH AQUIFER
-- (CHANGE AQANTRC TO AQFETTRC FOR COMPATABILITY WITH 86/1)
AQANTRC
1  'AQW'  1.0  /
/

-- DEFINE THE DEPTH TABLES TO BE USED FOR THE INITIALISATION OF TRACERS
-- 'IW1' AND 'IW2'. ONLY TABLE NUMBER 1 IS TO BE USED.

TVDPFIW1
3000.0   0.0
6000.0   0.0  /
/

TVDPFIW2
3000.0   0.0
6000.0   0.0  /
/

-- INITIALISE THE REMAINING TRACERS USING ENUMERATION

TBLKFCNW
135*1.0  /

TBLKFAQW
135*0.0  /

TBLKFOL1
15*1.0 120*0.0  /

TBLKFOL2
15*0.0 15*1.0 105*0.0  /

TBLKFOL3
30*0.0 15*1.0 90*0.0   /

TBLKFOL4
45*0.0 15*1.0 75*0.0   /

TBLKFOL5
60*0.0 15*1.0 60*0.0   /

TBLKFOL6
75*0.0 15*1.0 45*0.0   /

TBLKFOL7
90*0.0 15*1.0 30*0.0   /

TBLKFOL8
105*0.0 15*1.0 15*0.0   /

TBLKFOL9
120*0.0 15*1.0 /

-- ACTIVATE OUTPUT OF THE DEPTH TABLES, INITIAL FIELD VOLUMES OF
-- TRACER-IN-PLACE AND THE INITIAL TRACER CONCENTRATION GRID ARRAYS
-- USING ITEMS 28,32 AND 33 RESPECTIVELY

RPTSOL
-- Initialisation Print Output
-- 
'PRES' 'SOIL' 'SWAT' 'FIP=2' 'AQUCT=1' 'TVDP' 'FIPTR=1' 'TBLK'   /

SUMMARY    ===========================================================

FOPR
FWPR
FOPT
FWPT

-- SPECIFY THE TRACER DATA TO BE WRITTEN TO THE SUMMARY FILE FOR USE
-- WITH THE ECLIPSE GRAPHICS PACKAGE. THE FOLLOWING KEYWORDS CAUSE THE
-- FIELD PRODUCTION RATES FOR EACH OF THE 13 TRACERS TO BE WRITTEN TO
-- THE SUMMARY FILES.

FTPRIW1
FTPRIW2
FTPRCNW
FTPRAQW
FTPROL1
FTPROL2
FTPROL3
FTPROL4
FTPROL5
FTPROL6
FTPROL7
FTPROL8
FTPROL9

-- THE FOLLOWING KEYWORDS PRODUCE FIELD CUMULATIVE TRACER TOTALS ON
-- THE SUMMARY FILES

FTPTIW1
FTPTIW2
FTPTCNW
FTPTAQW
FTPTOL1
FTPTOL2
FTPTOL3
FTPTOL4
FTPTOL5
FTPTOL6
FTPTOL7
FTPTOL8
FTPTOL9

RPTSMRY
1   /

SCHEDULE   ===========================================================

-- ACTIVATE OUTPUT OF THE CURRENT FIELD VOLUMES OF TRACER-IN-PLACE
-- AND THE CURRENT TRACER CONCENTRATION GRID ARRAYS USING ITEMS 32
-- AND 33 RESPECTIVELY

RPTSCHED
'PRES' 'SWAT' 'RESTART=2' 'FIP=2' 'WELLS=2' 'VFPPROD=2' 'SUMMARY=2' 'CPU=2' 
'AQUCT' 'WELSPECS' 'NEWTON=2' 'FIPTR=2' 'TBLK'   /

WELSPECS
'I1'  'G'   1  1  4000  'WAT'  /
'I2'  'G'   6  1  4000  'WAT'  /
'P'   'G'  15  1  4000  'OIL'  /
/

COMPDAT
'I1      '   1   1   1   1 'OPEN'   0  .0   1.0 /
'I1      '   1   1   2   2 'OPEN'   0  .0   1.0 /
'I1      '   1   1   5   5 'OPEN'   0  .0   1.0 /
'I2      '   4   1   1   1 'OPEN'   0  .0   1.0 /
'I2      '   4   1   2   2 'OPEN'   0  .0   1.0 /
'P       '   15  1   1   1 'OPEN'   0  .0   1.0 /
'P       '   15  1   2   2 'OPEN'   0  .0   1.0 /
/

WCONPROD
'P' 'OPEN' 'LRAT' 3* 3000.0 /
/

WCONINJE
'I1' 'WAT' 'OPEN' 'RATE' 2000.0     /
'I2' 'WAT' 'OPEN' 'RATE' 800.0      /
/

-- DEFINE THE CONCENTRATION OF EACH TRACER IN THE INJECTION STREAMS.
-- INJECTION TRACER CONCENTRATIONS NOT DEFINED USING THE WTRACER
-- KEYWORD ARE ASSUMED TO BE ZERO.

WTRACER
'I1' 'IW1' 1.0 /
'I2' 'IW2' 1.0 /
/

TSTEP
 1000.0 1000.0 1000.0 1000.0 1000.0  /

END
