 
RUNSPEC
TITLE
 Compressed VE base case.

DIMENS
    5    1    4  /

OIL

WATER

GAS

DISGAS

FIELD

VE
  'COMPRESS' /

EQLDIMS
    1  100    2    1   20 /

TABDIMS
    5    1   13   20    3   20 /

REGDIMS
    3    1    0    0  /

WELLDIMS
    2   13    1    2 /

LGR
       0           0           0    0    0   10  'NOINTERP' /

NUPCOL
    4 /

START
  26 'APR' 1983  /

NSTACK
    4 /

FMTOUT

GRID      ==============================================================

GRIDFILE
 2 /
COORD
     0.0     0.0     0.0       0.0    0.0  10000.0
   200.0     0.0     0.0     200.0    0.0  10000.0
   400.0     0.0     0.0     400.0    0.0  10000.0
   600.0     0.0     0.0     600.0    0.0  10000.0
   800.0     0.0     0.0     800.0    0.0  10000.0
  1000.0     0.0     0.0    1000.0    0.0  10000.0
     0.0   500.0     0.0       0.0  500.0  10000.0
   200.0   500.0     0.0     200.0  500.0  10000.0
   400.0   500.0     0.0     400.0  500.0  10000.0
   600.0   500.0     0.0     600.0  500.0  10000.0
   800.0   500.0     0.0     800.0  500.0  10000.0
  1000.0   500.0     0.0    1000.0  500.0  10000.0
/

ZCORN
 5000.0 2*5050.0 2*5100.0 2*5150.0 2*5200.0 5250.0
 5000.0 2*5050.0 2*5100.0 2*5150.0 2*5200.0 5250.0
 5020.0 2*5070.0 2*5120.0 2*5170.0 2*5220.0 5270.0
 5020.0 2*5070.0 2*5120.0 2*5170.0 2*5220.0 5270.0

 5020.0 2*5070.0 2*5120.0 2*5170.0 2*5220.0 5270.0
 5020.0 2*5070.0 2*5120.0 2*5170.0 2*5220.0 5270.0
 5040.0 2*5090.0 2*5140.0 2*5190.0 2*5240.0 5290.0
 5040.0 2*5090.0 2*5140.0 2*5190.0 2*5240.0 5290.0

 5040.0 2*5090.0 2*5140.0 2*5190.0 2*5245.0 5300.0
 5040.0 2*5090.0 2*5140.0 2*5190.0 2*5245.0 5300.0
 5060.0 2*5110.0 2*5160.0 2*5210.0 2*5265.0 5320.0
 5060.0 2*5110.0 2*5160.0 2*5210.0 2*5265.0 5320.0

 5060.0 2*5110.0 2*5160.0 2*5210.0 2*5265.0 5320.0
 5060.0 2*5110.0 2*5160.0 2*5210.0 2*5265.0 5320.0
 5080.0 2*5130.0 2*5180.0 2*5230.0 2*5285.0 5340.0
 5080.0 2*5130.0 2*5180.0 2*5230.0 2*5285.0 5340.0
/

EQUALS
 'PORO'    0.2    /
 'PERMX'  1000    /
 'PERMY'  1000    /
 'PERMZ'  1000    /
 'MULTZ'  0.0       4 5  1 1  2 2 /
/

RPTGRID
-- Report Levels for Grid Section Data
-- 
'DX' 
'DY' 
'DZ' 
'PERMX' 
'PERMY' 
'PERMZ' 
'MULTX' 
'MULTY' 
'MULTZ' 
'PORO' 
'NTG' 
'TOPS' 
'PORV' 
'DEPTH' 
'TRANX' 
'TRANY' 
'TRANZ' 
'COORDSYS' 
'COORD' 
'ZCORN' 
'NNC' 
'AQUNUM' 
'AQUCON' 
'ALLNNC' 
 / 

NEWTRAN

PROPS    ===============================================================

SWFN
    0.22  0       7
    0.3   0.07    4
    1     1       0      /
    0.22  0       7
    0.3   0.07    4
    1     1       0      /
    0.22  0       7
    0.3   0.07    4
    1     1       0      /
    0.22  0       7
    0.3   0.07    4
    1     1       0      /
    0.22  0       7
    0.3   0.07    4
    1     1       0      /

SGFN
    0     0       0
    0.04  0       0.1
    0.2   0.1     1
    0.78  1       4      /
    0     0       0
    0.04  0       0.1
    0.2   0.1     1
    0.78  1       4      /
    0     0       0
    0.04  0       0.1
    0.2   0.1     1
    0.78  1       4      /
    0     0       0
    0.04  0       0.1
    0.2   0.1     1
    0.78  1       4      /
    0     0       0
    0.04  0       0.1
    0.2   0.1     1
    0.78  1       4      /

SOF3
    0        0         0
    0.2      0         0
    0.38      0.00432   0
    0.4      0.0048    0.004
    0.78     1         1          /
    0        0         0
    0.2      0         0
    0.38      0.00432   0
    0.4      0.0048    0.004
    0.78     1         1          /
    0        0         0
    0.2      0         0
    0.38      0.00432   0
    0.4      0.0048    0.004
    0.78     1         1          /
    0        0         0
    0.2      0         0
    0.38      0.00432   0
    0.4      0.0048    0.004
    0.78     1         1          /
    0        0         0
    0.2      0         0
    0.38      0.00432   0
    0.4      0.0048    0.004
    0.78     1         1          /

PVTW
        3600     1.00341        3.0D-6          0.96             0  /

ROCK
         3600          4.0D-6   /

DENSITY
           45   63.02   0.0702  /

PVDG
      400    5.9   0.013
      800    2.95  0.0135
     2000    1.18  0.015
     3600    0.65  0.017
     5600    0.42  0.0195 /

PVTO
   0.165      400   1.012    1.17  /
   0.500     1200   1.038    1.11  /
   1.130     2800   1.087    1.00  /
   1.600     4400   1.13     0.92  /
   1.750     5200   1.148    0.9   /
   1.810     5600   1.155    0.89
             6000   1.1504   0.89
             7200   1.1367   0.89  /
/

REGIONS    ============================================================

FIPNUM
 10*1 9*2  3 /

SATNUM
20*1 /

SOLUTION   =============================================================

RPTSOL
-- Initialisation Print Output
-- 
'PRES' 'SOIL' 'SWAT' 'SGAS' 'RESTART=2' 'FIP=2' 'WOC' 'GOC' /

EQUIL
5050  4000  5300  0  5050  0   0   0   0  /

RSVD
2000 1.5
7000 1.5
/

SUMMARY
FPR
RPR
 /
ROE
/
FOIP
ROIP
/

FWCT
FOPR
FWPR
FGPR
BPR
 1 1 1 /
 1 1 2 /
 1 1 3 /
/
CWCT
 'P'  3 1 2 /
 'P'  3 1 3 /
/
RUNSUM
SEPARATE

SCHEDULE   ===========================================================

RPTSCHED
'PRES' 'SOIL' 'SWAT' 'SGAS' 'RESTART=2' 'FIP=2' 'WELLS=2' 'SUMMARY=2' 'CPU=2' 
'WELSPECS' 'NEWTON=2' 'WOC' 'GOC' /


WELSPECS
'I'  'G'   5  1  5475  'WAT'  /
'P'  'G'   3  1  5075  'OIL'  /
/

COMPDAT
'I       '   1* 1*  2 2 'OPEN'   0  .000000 1.0 /
'P       '   1* 1*  2 3 'OPEN'   0  .000000 1.0 /
/

COMPVE
'I       '   1* 1*   2 2 1* 1.0 5240 5304 /
'P       '   1* 1*   2 3 1* 1.0 5145 5185 /
/

WCONINJE
'I       ' 'WAT' 'OPEN' 'RATE' 800.0 /
/

WCONPROD                                         FIELD   14:04 18 SEP 85
'P       ','OPEN','LRAT'     1*          1*          1*
 900.000000      1*    1000.00000    1*       1*     1*    /
/

TSTEP
 8*100
/
WCONINJE
'I       ' 'WAT' 'SHUT'  'RATE' 800.0 /
/

WCONPROD                                         FIELD   14:04 18 SEP 85
'P       ' 'SHUT'  'LRAT'     1*          1*          1*
 900.000000      1*    1000.00000    1*       1*     1*    /
/

TSTEP
 8*100 /

END
